/*---------------------------------------------------------------------------*\
  =========                 |
  \\      /  F ield         | OpenFOAM: The Open Source CFD Toolbox
   \\    /   O peration     | Website:  https://openfoam.org
    \\  /    A nd           | Version:  11
     \\/     M anipulation  |
\*---------------------------------------------------------------------------*/
Build  : 11-d496a603da00
Exec   : foamRun -solver incompressibleFluid -parallel
Date   : Oct 25 2023
Time   : 15:30:07
Host   : "Laptop"
PID    : 436904
I/O    : uncollated
Case   : /home/tiago/OpenFOAM/tiago-11/run/test1
nProcs : 4
Slaves : 
3
(
"Laptop.436905"
"Laptop.436906"
"Laptop.436910"
)

Pstream initialised with:
    floatTransfer      : false
    nProcsSimpleSum    : 0
    commsType          : nonBlocking
    polling iterations : 0
sigFpe : Enabling floating point exception trapping (FOAM_SIGFPE).
fileModificationChecking : Monitoring run-time modified files using timeStampMaster (fileModificationSkew 10)
allowSystemOperations : Allowing user-supplied system call operations

// * * * * * * * * * * * * * * * * * * * * * * * * * * * * * * * * * * * * * //
Create time

Create mesh for time = 0

Selecting solver incompressibleFluid
Selecting viscosity model constant
Selecting turbulence model type RAS
Selecting RAS turbulence model SpalartAllmaras
Selecting patchDistMethod meshWave
RAS
{
    model           SpalartAllmaras;
    turbulence      on;
    printCoeffs     on;
    sigmaNut        0.66666;
    kappa           0.41;
    Cb1             0.1355;
    Cb2             0.622;
    Cw2             0.3;
    Cw3             2;
    Cv1             7.1;
    Cs              0.3;
}

No MRF models present


SIMPLE: Convergence criteria found
        p: tolerance 0.0001
        U: tolerance 0.0001
        nuTilda: tolerance 0.0001


SIMPLE: Operating solver in steady-state mode with 1 outer corrector
SIMPLE: Operating solver in SIMPLE mode



Starting time loop

Time = 1s

smoothSolver:  Solving for Ux, Initial residual = 1, Final residual = 2.99675e-05, No Iterations 2
smoothSolver:  Solving for Uy, Initial residual = 1, Final residual = 0.0214964, No Iterations 2
smoothSolver:  Solving for Uz, Initial residual = 1, Final residual = 0.0209777, No Iterations 2
GAMG:  Solving for p, Initial residual = 1, Final residual = 0.00965745, No Iterations 20
time step continuity errors : sum local = 0.00670074, global = 0.00192503, cumulative = 0.00192503
smoothSolver:  Solving for nuTilda, Initial residual = 1, Final residual = 0.0257726, No Iterations 4
bounding nuTilda, min: -0.00161464 max: 0.0374 average: 0.000180102
ExecutionTime = 9.95398 s  ClockTime = 10 s

Time = 2s

smoothSolver:  Solving for Ux, Initial residual = 0.0715527, Final residual = 0.00509151, No Iterations 4
smoothSolver:  Solving for Uy, Initial residual = 0.182503, Final residual = 0.012205, No Iterations 4
smoothSolver:  Solving for Uz, Initial residual = 0.184465, Final residual = 0.0114859, No Iterations 4
GAMG:  Solving for p, Initial residual = 0.0085035, Final residual = 7.69369e-05, No Iterations 32
time step continuity errors : sum local = 0.0105525, global = 0.00216069, cumulative = 0.00408572
smoothSolver:  Solving for nuTilda, Initial residual = 0.149558, Final residual = 0.00467938, No Iterations 4
bounding nuTilda, min: -0.000373042 max: 0.0374 average: 0.000260276
ExecutionTime = 15.1873 s  ClockTime = 15 s

Time = 3s

smoothSolver:  Solving for Ux, Initial residual = 0.37138, Final residual = 0.0360346, No Iterations 4
smoothSolver:  Solving for Uy, Initial residual = 0.338613, Final residual = 0.03102, No Iterations 4
smoothSolver:  Solving for Uz, Initial residual = 0.32186, Final residual = 0.0305518, No Iterations 4
GAMG:  Solving for p, Initial residual = 3.58537e-05, Final residual = 3.4124e-07, No Iterations 6
time step continuity errors : sum local = 0.0192188, global = -0.00465488, cumulative = -0.000569158
smoothSolver:  Solving for nuTilda, Initial residual = 0.08378, Final residual = 0.00318497, No Iterations 4
ExecutionTime = 17.9454 s  ClockTime = 18 s

Time = 4s

smoothSolver:  Solving for Ux, Initial residual = 0.251045, Final residual = 0.0114863, No Iterations 6
smoothSolver:  Solving for Uy, Initial residual = 0.203671, Final residual = 0.00887058, No Iterations 6
smoothSolver:  Solving for Uz, Initial residual = 0.20377, Final residual = 0.00869804, No Iterations 6
GAMG:  Solving for p, Initial residual = 3.06211e-05, Final residual = 2.82416e-07, No Iterations 13
time step continuity errors : sum local = 0.020451, global = -0.00637533, cumulative = -0.00694449
smoothSolver:  Solving for nuTilda, Initial residual = 0.0585941, Final residual = 0.0023178, No Iterations 4
ExecutionTime = 21.5288 s  ClockTime = 21 s

Time = 5s

smoothSolver:  Solving for Ux, Initial residual = 0.0616243, Final residual = 0.00408844, No Iterations 4
smoothSolver:  Solving for Uy, Initial residual = 0.118786, Final residual = 0.00952849, No Iterations 4
smoothSolver:  Solving for Uz, Initial residual = 0.113748, Final residual = 0.00977133, No Iterations 4
GAMG:  Solving for p, Initial residual = 0.000201654, Final residual = 1.95258e-06, No Iterations 11
time step continuity errors : sum local = 0.0220362, global = -0.00735292, cumulative = -0.0142974
smoothSolver:  Solving for nuTilda, Initial residual = 0.0465612, Final residual = 0.00185075, No Iterations 4
ExecutionTime = 25.2442 s  ClockTime = 25 s

Time = 6s

smoothSolver:  Solving for Ux, Initial residual = 0.185361, Final residual = 0.0163969, No Iterations 4
smoothSolver:  Solving for Uy, Initial residual = 0.144964, Final residual = 0.0119905, No Iterations 4
smoothSolver:  Solving for Uz, Initial residual = 0.138058, Final residual = 0.0116124, No Iterations 4
GAMG:  Solving for p, Initial residual = 5.53213e-05, Final residual = 4.77686e-07, No Iterations 5
time step continuity errors : sum local = 0.0194451, global = 0.00324684, cumulative = -0.0110506
smoothSolver:  Solving for nuTilda, Initial residual = 0.0388985, Final residual = 0.0015401, No Iterations 4
ExecutionTime = 29.0653 s  ClockTime = 29 s

Time = 7s

smoothSolver:  Solving for Ux, Initial residual = 0.184527, Final residual = 0.00841818, No Iterations 6
smoothSolver:  Solving for Uy, Initial residual = 0.149946, Final residual = 0.0131407, No Iterations 4
smoothSolver:  Solving for Uz, Initial residual = 0.153375, Final residual = 0.0135987, No Iterations 4
GAMG:  Solving for p, Initial residual = 4.87895e-05, Final residual = 4.75106e-07, No Iterations 11
time step continuity errors : sum local = 0.0213018, global = 0.00739114, cumulative = -0.00365943
smoothSolver:  Solving for nuTilda, Initial residual = 0.0337578, Final residual = 0.00131086, No Iterations 4
ExecutionTime = 32.8201 s  ClockTime = 32 s

Time = 8s

smoothSolver:  Solving for Ux, Initial residual = 0.0611793, Final residual = 0.0035023, No Iterations 4
smoothSolver:  Solving for Uy, Initial residual = 0.102362, Final residual = 0.00758063, No Iterations 4
smoothSolver:  Solving for Uz, Initial residual = 0.103588, Final residual = 0.00798195, No Iterations 4
GAMG:  Solving for p, Initial residual = 0.000539468, Final residual = 4.58966e-06, No Iterations 11
time step continuity errors : sum local = 0.0156818, global = 0.00532496, cumulative = 0.00166553
smoothSolver:  Solving for nuTilda, Initial residual = 0.0294754, Final residual = 0.00113632, No Iterations 4
bounding nuTilda, min: -7.24255e-05 max: 0.0374174 average: 0.000692112
ExecutionTime = 36.6804 s  ClockTime = 36 s

regIOobject::readIfModified() : 
    Re-reading object controlDict from file "/home/tiago/OpenFOAM/tiago-11/run/test1/system/controlDict"
Time = 9s

smoothSolver:  Solving for Ux, Initial residual = 0.127204, Final residual = 0.0105227, No Iterations 4
smoothSolver:  Solving for Uy, Initial residual = 0.100361, Final residual = 0.00706202, No Iterations 4
smoothSolver:  Solving for Uz, Initial residual = 0.0975308, Final residual = 0.00668373, No Iterations 4
GAMG:  Solving for p, Initial residual = 7.27157e-05, Final residual = 5.95562e-07, No Iterations 5
time step continuity errors : sum local = 0.014745, global = -0.00170493, cumulative = -3.94039e-05
smoothSolver:  Solving for nuTilda, Initial residual = 0.0262691, Final residual = 0.000993207, No Iterations 4
bounding nuTilda, min: -7.26583e-05 max: 0.0374179 average: 0.000765768
ExecutionTime = 40.0363 s  ClockTime = 40 s

Time = 10s

smoothSolver:  Solving for Ux, Initial residual = 0.0920919, Final residual = 0.0087417, No Iterations 4
smoothSolver:  Solving for Uy, Initial residual = 0.0956519, Final residual = 0.00771113, No Iterations 4
smoothSolver:  Solving for Uz, Initial residual = 0.0949067, Final residual = 0.00772741, No Iterations 4
GAMG:  Solving for p, Initial residual = 7.05651e-05, Final residual = 6.87153e-07, No Iterations 10
time step continuity errors : sum local = 0.0164518, global = -0.00477094, cumulative = -0.00481035
smoothSolver:  Solving for nuTilda, Initial residual = 0.0234421, Final residual = 0.000877923, No Iterations 4
bounding nuTilda, min: -7.98089e-05 max: 0.0374183 average: 0.000837807
ExecutionTime = 43.4875 s  ClockTime = 43 s

Time = 11s

smoothSolver:  Solving for Ux, Initial residual = 0.0437217, Final residual = 0.00236554, No Iterations 4
smoothSolver:  Solving for Uy, Initial residual = 0.0751383, Final residual = 0.00515547, No Iterations 4
smoothSolver:  Solving for Uz, Initial residual = 0.0764838, Final residual = 0.00542134, No Iterations 4
GAMG:  Solving for p, Initial residual = 0.000271725, Final residual = 2.66122e-06, No Iterations 9
time step continuity errors : sum local = 0.0155721, global = -0.00525082, cumulative = -0.0100612
smoothSolver:  Solving for nuTilda, Initial residual = 0.0210126, Final residual = 0.000788057, No Iterations 4
bounding nuTilda, min: -7.61274e-05 max: 0.0374195 average: 0.000906505
ExecutionTime = 46.7359 s  ClockTime = 46 s

Time = 12s

smoothSolver:  Solving for Ux, Initial residual = 0.0680202, Final residual = 0.00517782, No Iterations 4
smoothSolver:  Solving for Uy, Initial residual = 0.0767529, Final residual = 0.00432734, No Iterations 4
smoothSolver:  Solving for Uz, Initial residual = 0.0749856, Final residual = 0.00417513, No Iterations 4
GAMG:  Solving for p, Initial residual = 0.000138044, Final residual = 8.81063e-07, No Iterations 5
time step continuity errors : sum local = 0.00983357, global = -0.00143813, cumulative = -0.0114993
smoothSolver:  Solving for nuTilda, Initial residual = 0.0191034, Final residual = 0.000717968, No Iterations 4
bounding nuTilda, min: -6.93128e-05 max: 0.037417 average: 0.000970951
ExecutionTime = 49.9142 s  ClockTime = 50 s

Time = 13s

smoothSolver:  Solving for Ux, Initial residual = 0.0600377, Final residual = 0.0054937, No Iterations 4
smoothSolver:  Solving for Uy, Initial residual = 0.0735645, Final residual = 0.00482628, No Iterations 4
smoothSolver:  Solving for Uz, Initial residual = 0.0734599, Final residual = 0.00484212, No Iterations 4
GAMG:  Solving for p, Initial residual = 0.000123706, Final residual = 9.64937e-07, No Iterations 8
time step continuity errors : sum local = 0.0116358, global = 0.00341289, cumulative = -0.00808641
smoothSolver:  Solving for nuTilda, Initial residual = 0.017715, Final residual = 0.000660294, No Iterations 4
bounding nuTilda, min: -0.000101372 max: 0.0374111 average: 0.00103211
ExecutionTime = 54.7164 s  ClockTime = 54 s

Time = 14s

smoothSolver:  Solving for Ux, Initial residual = 0.0395781, Final residual = 0.00192641, No Iterations 4
smoothSolver:  Solving for Uy, Initial residual = 0.0685757, Final residual = 0.00379307, No Iterations 4
smoothSolver:  Solving for Uz, Initial residual = 0.0692097, Final residual = 0.00393192, No Iterations 4
GAMG:  Solving for p, Initial residual = 0.0117981, Final residual = 0.000106487, No Iterations 8
time step continuity errors : sum local = 0.0127425, global = 0.00371416, cumulative = -0.00437225
smoothSolver:  Solving for nuTilda, Initial residual = 0.016422, Final residual = 0.000611518, No Iterations 4
bounding nuTilda, min: -5.27837e-05 max: 0.0374046 average: 0.00109123
ExecutionTime = 59.6137 s  ClockTime = 59 s

Time = 15s

smoothSolver:  Solving for Ux, Initial residual = 0.0461365, Final residual = 0.00281347, No Iterations 4
smoothSolver:  Solving for Uy, Initial residual = 0.0732862, Final residual = 0.00338977, No Iterations 4
smoothSolver:  Solving for Uz, Initial residual = 0.0748199, Final residual = 0.00336761, No Iterations 4
GAMG:  Solving for p, Initial residual = 0.000107945, Final residual = 6.45749e-07, No Iterations 5
time step continuity errors : sum local = 0.0082496, global = 0.00170004, cumulative = -0.00267221
smoothSolver:  Solving for nuTilda, Initial residual = 0.0152671, Final residual = 0.000569301, No Iterations 4
bounding nuTilda, min: -4.82269e-05 max: 0.0374049 average: 0.00114861
ExecutionTime = 63.2721 s  ClockTime = 63 s

Time = 16s

smoothSolver:  Solving for Ux, Initial residual = 0.0399321, Final residual = 0.00311992, No Iterations 4
smoothSolver:  Solving for Uy, Initial residual = 0.0738144, Final residual = 0.00369633, No Iterations 4
smoothSolver:  Solving for Uz, Initial residual = 0.0750497, Final residual = 0.00369413, No Iterations 4
GAMG:  Solving for p, Initial residual = 9.15318e-05, Final residual = 6.84643e-07, No Iterations 5
time step continuity errors : sum local = 0.0099958, global = -0.00163108, cumulative = -0.00430329
smoothSolver:  Solving for nuTilda, Initial residual = 0.0142942, Final residual = 0.000533204, No Iterations 4
bounding nuTilda, min: -5.14757e-05 max: 0.0374075 average: 0.00120399
ExecutionTime = 66.7833 s  ClockTime = 66 s

Time = 17s

smoothSolver:  Solving for Ux, Initial residual = 0.0323698, Final residual = 0.00150596, No Iterations 4
smoothSolver:  Solving for Uy, Initial residual = 0.0684258, Final residual = 0.00294394, No Iterations 4
smoothSolver:  Solving for Uz, Initial residual = 0.0668401, Final residual = 0.00285559, No Iterations 4
GAMG:  Solving for p, Initial residual = 0.00031138, Final residual = 2.75801e-06, No Iterations 5
time step continuity errors : sum local = 0.0114785, global = -0.00275154, cumulative = -0.00705483
smoothSolver:  Solving for nuTilda, Initial residual = 0.013532, Final residual = 0.000502687, No Iterations 4
bounding nuTilda, min: -3.99674e-05 max: 0.0374094 average: 0.00125719
ExecutionTime = 69.7354 s  ClockTime = 69 s

Time = 18s

smoothSolver:  Solving for Ux, Initial residual = 0.0339985, Final residual = 0.00169579, No Iterations 4
smoothSolver:  Solving for Uy, Initial residual = 0.0649018, Final residual = 0.00245588, No Iterations 4
smoothSolver:  Solving for Uz, Initial residual = 0.0611813, Final residual = 0.00216795, No Iterations 4
GAMG:  Solving for p, Initial residual = 0.00181806, Final residual = 1.14238e-05, No Iterations 5
time step continuity errors : sum local = 0.00827383, global = -0.00167001, cumulative = -0.00872485
smoothSolver:  Solving for nuTilda, Initial residual = 0.0128854, Final residual = 0.00047637, No Iterations 4
bounding nuTilda, min: -3.63209e-05 max: 0.0374114 average: 0.00130852
ExecutionTime = 72.9447 s  ClockTime = 73 s

Time = 19s

smoothSolver:  Solving for Ux, Initial residual = 0.0310056, Final residual = 0.00185097, No Iterations 4
smoothSolver:  Solving for Uy, Initial residual = 0.0672012, Final residual = 0.00262874, No Iterations 4
smoothSolver:  Solving for Uz, Initial residual = 0.0634408, Final residual = 0.00246397, No Iterations 4
GAMG:  Solving for p, Initial residual = 0.00164496, Final residual = 7.47818e-06, No Iterations 5
time step continuity errors : sum local = 0.00594105, global = -0.000165437, cumulative = -0.00889028
smoothSolver:  Solving for nuTilda, Initial residual = 0.0122859, Final residual = 0.000452749, No Iterations 4
bounding nuTilda, min: -6.23063e-05 max: 0.0374182 average: 0.00135877
ExecutionTime = 75.8092 s  ClockTime = 75 s

Time = 20s

smoothSolver:  Solving for Ux, Initial residual = 0.0280364, Final residual = 0.00120504, No Iterations 4
smoothSolver:  Solving for Uy, Initial residual = 0.07169, Final residual = 0.00258778, No Iterations 4
smoothSolver:  Solving for Uz, Initial residual = 0.0685251, Final residual = 0.00247461, No Iterations 4
GAMG:  Solving for p, Initial residual = 0.00192068, Final residual = 1.29105e-05, No Iterations 5
time step continuity errors : sum local = 0.00882517, global = 0.00189382, cumulative = -0.00699646
smoothSolver:  Solving for nuTilda, Initial residual = 0.0117127, Final residual = 0.000431501, No Iterations 4
bounding nuTilda, min: -5.77528e-05 max: 0.0374198 average: 0.00140842
ExecutionTime = 78.5732 s  ClockTime = 78 s

Time = 21s

smoothSolver:  Solving for Ux, Initial residual = 0.0266264, Final residual = 0.00105861, No Iterations 4
smoothSolver:  Solving for Uy, Initial residual = 0.0725837, Final residual = 0.0023207, No Iterations 4
smoothSolver:  Solving for Uz, Initial residual = 0.0689055, Final residual = 0.0021213, No Iterations 4
GAMG:  Solving for p, Initial residual = 0.000579948, Final residual = 5.63929e-06, No Iterations 4
time step continuity errors : sum local = 0.013108, global = 0.00173599, cumulative = -0.00526047
smoothSolver:  Solving for nuTilda, Initial residual = 0.0111772, Final residual = 0.000411921, No Iterations 4
bounding nuTilda, min: -0.000121895 max: 0.0374195 average: 0.00145765
ExecutionTime = 81.2801 s  ClockTime = 81 s

Time = 22s

smoothSolver:  Solving for Ux, Initial residual = 0.0273219, Final residual = 0.00126082, No Iterations 4
smoothSolver:  Solving for Uy, Initial residual = 0.0701503, Final residual = 0.00227228, No Iterations 4
smoothSolver:  Solving for Uz, Initial residual = 0.0653404, Final residual = 0.00202484, No Iterations 4
GAMG:  Solving for p, Initial residual = 0.000496817, Final residual = 2.80119e-06, No Iterations 4
time step continuity errors : sum local = 0.00759508, global = 0.00143207, cumulative = -0.0038284
smoothSolver:  Solving for nuTilda, Initial residual = 0.0107257, Final residual = 0.000394628, No Iterations 4
bounding nuTilda, min: -8.33959e-05 max: 0.0374205 average: 0.00150606
ExecutionTime = 84.0756 s  ClockTime = 84 s

Time = 23s

smoothSolver:  Solving for Ux, Initial residual = 0.0271944, Final residual = 0.00102546, No Iterations 4
smoothSolver:  Solving for Uy, Initial residual = 0.0688585, Final residual = 0.00223857, No Iterations 4
smoothSolver:  Solving for Uz, Initial residual = 0.0623725, Final residual = 0.00202406, No Iterations 4
GAMG:  Solving for p, Initial residual = 0.000660836, Final residual = 5.87906e-06, No Iterations 4
time step continuity errors : sum local = 0.0118865, global = -0.000841631, cumulative = -0.00467003
smoothSolver:  Solving for nuTilda, Initial residual = 0.0103258, Final residual = 0.000378828, No Iterations 4
bounding nuTilda, min: -9.01127e-05 max: 0.0374221 average: 0.00155352
ExecutionTime = 86.6356 s  ClockTime = 86 s

Time = 24s

smoothSolver:  Solving for Ux, Initial residual = 0.0251293, Final residual = 0.000849228, No Iterations 4
smoothSolver:  Solving for Uy, Initial residual = 0.0696335, Final residual = 0.0021751, No Iterations 4
smoothSolver:  Solving for Uz, Initial residual = 0.0626915, Final residual = 0.00194083, No Iterations 4
GAMG:  Solving for p, Initial residual = 0.00151107, Final residual = 1.26217e-05, No Iterations 4
time step continuity errors : sum local = 0.0110469, global = -0.00102027, cumulative = -0.00569031
smoothSolver:  Solving for nuTilda, Initial residual = 0.00996253, Final residual = 0.000364675, No Iterations 4
bounding nuTilda, min: -0.000118645 max: 0.0374232 average: 0.00160018
ExecutionTime = 89.3075 s  ClockTime = 89 s

Time = 25s

smoothSolver:  Solving for Ux, Initial residual = 0.0242137, Final residual = 0.000893003, No Iterations 4
smoothSolver:  Solving for Uy, Initial residual = 0.0734228, Final residual = 0.00232135, No Iterations 4
smoothSolver:  Solving for Uz, Initial residual = 0.0657521, Final residual = 0.00195044, No Iterations 4
GAMG:  Solving for p, Initial residual = 0.00181279, Final residual = 1.5561e-05, No Iterations 4
time step continuity errors : sum local = 0.0112671, global = -0.00239806, cumulative = -0.00808837
smoothSolver:  Solving for nuTilda, Initial residual = 0.00963371, Final residual = 0.000351548, No Iterations 4
bounding nuTilda, min: -0.000133756 max: 0.0374278 average: 0.00164631
ExecutionTime = 91.9272 s  ClockTime = 92 s

Time = 26s

smoothSolver:  Solving for Ux, Initial residual = 0.0234349, Final residual = 0.000791204, No Iterations 4
smoothSolver:  Solving for Uy, Initial residual = 0.0757806, Final residual = 0.00244641, No Iterations 4
smoothSolver:  Solving for Uz, Initial residual = 0.06763, Final residual = 0.00209759, No Iterations 4
GAMG:  Solving for p, Initial residual = 0.00110326, Final residual = 4.84963e-06, No Iterations 4
time step continuity errors : sum local = 0.00586527, global = -0.000916813, cumulative = -0.00900518
smoothSolver:  Solving for nuTilda, Initial residual = 0.00933902, Final residual = 0.000339631, No Iterations 4
bounding nuTilda, min: -0.000146692 max: 0.0374318 average: 0.00169204
ExecutionTime = 94.6079 s  ClockTime = 94 s

Time = 27s

smoothSolver:  Solving for Ux, Initial residual = 0.0226205, Final residual = 0.000666166, No Iterations 4
smoothSolver:  Solving for Uy, Initial residual = 0.0741961, Final residual = 0.00227473, No Iterations 4
smoothSolver:  Solving for Uz, Initial residual = 0.06588, Final residual = 0.00198785, No Iterations 4
GAMG:  Solving for p, Initial residual = 0.000695884, Final residual = 3.01649e-06, No Iterations 4
time step continuity errors : sum local = 0.00582145, global = 0.000243989, cumulative = -0.00876119
smoothSolver:  Solving for nuTilda, Initial residual = 0.00908296, Final residual = 0.000328971, No Iterations 4
bounding nuTilda, min: -0.000127429 max: 0.037434 average: 0.00173745
ExecutionTime = 97.4131 s  ClockTime = 97 s

Time = 28s

smoothSolver:  Solving for Ux, Initial residual = 0.023048, Final residual = 0.000728757, No Iterations 4
smoothSolver:  Solving for Uy, Initial residual = 0.0725076, Final residual = 0.00215941, No Iterations 4
smoothSolver:  Solving for Uz, Initial residual = 0.0642424, Final residual = 0.00175654, No Iterations 4
GAMG:  Solving for p, Initial residual = 0.000543365, Final residual = 2.72404e-06, No Iterations 4
time step continuity errors : sum local = 0.00664857, global = 0.000105057, cumulative = -0.00865614
smoothSolver:  Solving for nuTilda, Initial residual = 0.00885704, Final residual = 0.000319199, No Iterations 4
bounding nuTilda, min: -8.48694e-05 max: 0.0374343 average: 0.00178254
ExecutionTime = 100.117 s  ClockTime = 100 s

Time = 29s

smoothSolver:  Solving for Ux, Initial residual = 0.0227321, Final residual = 0.0007296, No Iterations 4
smoothSolver:  Solving for Uy, Initial residual = 0.0722703, Final residual = 0.00213987, No Iterations 4
smoothSolver:  Solving for Uz, Initial residual = 0.0641221, Final residual = 0.0017821, No Iterations 4
GAMG:  Solving for p, Initial residual = 0.000547959, Final residual = 1.53438e-06, No Iterations 4
time step continuity errors : sum local = 0.00368378, global = 0.000307969, cumulative = -0.00834817
smoothSolver:  Solving for nuTilda, Initial residual = 0.00865919, Final residual = 0.000310352, No Iterations 4
bounding nuTilda, min: -8.8847e-05 max: 0.0374352 average: 0.00182724
ExecutionTime = 102.642 s  ClockTime = 102 s

Time = 30s

smoothSolver:  Solving for Ux, Initial residual = 0.0215198, Final residual = 0.000654333, No Iterations 4
smoothSolver:  Solving for Uy, Initial residual = 0.0734266, Final residual = 0.00207649, No Iterations 4
smoothSolver:  Solving for Uz, Initial residual = 0.0647489, Final residual = 0.00178473, No Iterations 4
GAMG:  Solving for p, Initial residual = 0.000610977, Final residual = 2.53364e-06, No Iterations 4
time step continuity errors : sum local = 0.00552511, global = -0.000718554, cumulative = -0.00906672
smoothSolver:  Solving for nuTilda, Initial residual = 0.00847606, Final residual = 0.000302104, No Iterations 4
bounding nuTilda, min: -8.29637e-05 max: 0.0374378 average: 0.00187155
ExecutionTime = 105.46 s  ClockTime = 105 s

Time = 31s

smoothSolver:  Solving for Ux, Initial residual = 0.0208395, Final residual = 0.000651336, No Iterations 4
smoothSolver:  Solving for Uy, Initial residual = 0.0743641, Final residual = 0.00203584, No Iterations 4
smoothSolver:  Solving for Uz, Initial residual = 0.0645876, Final residual = 0.00166669, No Iterations 4
GAMG:  Solving for p, Initial residual = 0.000703979, Final residual = 3.2151e-06, No Iterations 4
time step continuity errors : sum local = 0.00613269, global = -0.00083722, cumulative = -0.00990394
smoothSolver:  Solving for nuTilda, Initial residual = 0.00831324, Final residual = 0.000294662, No Iterations 4
bounding nuTilda, min: -0.000213997 max: 0.0374425 average: 0.00191562
ExecutionTime = 108.385 s  ClockTime = 108 s

Time = 32s

smoothSolver:  Solving for Ux, Initial residual = 0.0205992, Final residual = 0.000635668, No Iterations 4
smoothSolver:  Solving for Uy, Initial residual = 0.0744923, Final residual = 0.00204107, No Iterations 4
smoothSolver:  Solving for Uz, Initial residual = 0.0648257, Final residual = 0.00166761, No Iterations 4
GAMG:  Solving for p, Initial residual = 0.000657381, Final residual = 2.91703e-06, No Iterations 4
time step continuity errors : sum local = 0.00596097, global = -0.00126945, cumulative = -0.0111734
smoothSolver:  Solving for nuTilda, Initial residual = 0.00816837, Final residual = 0.000287872, No Iterations 4
bounding nuTilda, min: -0.000146865 max: 0.0374457 average: 0.00195943
ExecutionTime = 111.607 s  ClockTime = 111 s

Time = 33s

smoothSolver:  Solving for Ux, Initial residual = 0.0205031, Final residual = 0.000584039, No Iterations 4
smoothSolver:  Solving for Uy, Initial residual = 0.073926, Final residual = 0.00197696, No Iterations 4
smoothSolver:  Solving for Uz, Initial residual = 0.0651131, Final residual = 0.00166199, No Iterations 4
GAMG:  Solving for p, Initial residual = 0.00056244, Final residual = 2.2509e-06, No Iterations 4
time step continuity errors : sum local = 0.0053749, global = -0.000739493, cumulative = -0.0119129
smoothSolver:  Solving for nuTilda, Initial residual = 0.00803801, Final residual = 0.000281699, No Iterations 4
bounding nuTilda, min: -0.000191683 max: 0.0374477 average: 0.00200297
ExecutionTime = 115.23 s  ClockTime = 115 s

Time = 34s

smoothSolver:  Solving for Ux, Initial residual = 0.0200049, Final residual = 0.000537994, No Iterations 4
smoothSolver:  Solving for Uy, Initial residual = 0.0741688, Final residual = 0.00191092, No Iterations 4
smoothSolver:  Solving for Uz, Initial residual = 0.0651245, Final residual = 0.00157737, No Iterations 4
GAMG:  Solving for p, Initial residual = 0.000485698, Final residual = 3.66496e-06, No Iterations 3
time step continuity errors : sum local = 0.0102566, global = -0.000600003, cumulative = -0.0125129
smoothSolver:  Solving for nuTilda, Initial residual = 0.00792452, Final residual = 0.00027598, No Iterations 4
bounding nuTilda, min: -0.000146372 max: 0.0374488 average: 0.00204616
ExecutionTime = 117.843 s  ClockTime = 117 s

Time = 35s

smoothSolver:  Solving for Ux, Initial residual = 0.0194403, Final residual = 0.000535556, No Iterations 4
smoothSolver:  Solving for Uy, Initial residual = 0.0755704, Final residual = 0.00185352, No Iterations 4
smoothSolver:  Solving for Uz, Initial residual = 0.0656892, Final residual = 0.00150489, No Iterations 4
GAMG:  Solving for p, Initial residual = 0.000461977, Final residual = 3.44338e-06, No Iterations 3
time step continuity errors : sum local = 0.010278, global = -0.00051755, cumulative = -0.0130304
smoothSolver:  Solving for nuTilda, Initial residual = 0.0078225, Final residual = 0.000270804, No Iterations 4
bounding nuTilda, min: -0.00012867 max: 0.0374507 average: 0.00208896
ExecutionTime = 120.421 s  ClockTime = 120 s

Time = 36s

smoothSolver:  Solving for Ux, Initial residual = 0.0189472, Final residual = 0.00053602, No Iterations 4
smoothSolver:  Solving for Uy, Initial residual = 0.0765586, Final residual = 0.00178791, No Iterations 4
smoothSolver:  Solving for Uz, Initial residual = 0.0663398, Final residual = 0.00147117, No Iterations 4
GAMG:  Solving for p, Initial residual = 0.000444254, Final residual = 3.70648e-06, No Iterations 3
time step continuity errors : sum local = 0.0116426, global = -0.000809377, cumulative = -0.0138398
smoothSolver:  Solving for nuTilda, Initial residual = 0.00772872, Final residual = 0.000265913, No Iterations 4
bounding nuTilda, min: -7.11905e-05 max: 0.0374547 average: 0.00213148
ExecutionTime = 123.302 s  ClockTime = 123 s

Time = 37s

smoothSolver:  Solving for Ux, Initial residual = 0.0187819, Final residual = 0.000503098, No Iterations 4
smoothSolver:  Solving for Uy, Initial residual = 0.0767627, Final residual = 0.0017082, No Iterations 4
smoothSolver:  Solving for Uz, Initial residual = 0.0666448, Final residual = 0.00143615, No Iterations 4
GAMG:  Solving for p, Initial residual = 0.000435958, Final residual = 1.61071e-06, No Iterations 4
time step continuity errors : sum local = 0.00519669, global = -0.000644262, cumulative = -0.0144841
smoothSolver:  Solving for nuTilda, Initial residual = 0.00764745, Final residual = 0.000261201, No Iterations 4
bounding nuTilda, min: -0.000250519 max: 0.0374576 average: 0.00217365
ExecutionTime = 126.107 s  ClockTime = 126 s

Time = 38s

smoothSolver:  Solving for Ux, Initial residual = 0.0187984, Final residual = 0.000460098, No Iterations 4
smoothSolver:  Solving for Uy, Initial residual = 0.0765316, Final residual = 0.00166928, No Iterations 4
smoothSolver:  Solving for Uz, Initial residual = 0.0668608, Final residual = 0.00139258, No Iterations 4
GAMG:  Solving for p, Initial residual = 0.000449016, Final residual = 1.52873e-06, No Iterations 4
time step continuity errors : sum local = 0.00488256, global = -0.000497665, cumulative = -0.0149817
smoothSolver:  Solving for nuTilda, Initial residual = 0.00757672, Final residual = 0.000256803, No Iterations 4
bounding nuTilda, min: -0.000173994 max: 0.0374597 average: 0.00221542
ExecutionTime = 128.789 s  ClockTime = 128 s

Time = 39s

smoothSolver:  Solving for Ux, Initial residual = 0.0186384, Final residual = 0.000437335, No Iterations 4
smoothSolver:  Solving for Uy, Initial residual = 0.0770187, Final residual = 0.00166481, No Iterations 4
smoothSolver:  Solving for Uz, Initial residual = 0.0672764, Final residual = 0.00139941, No Iterations 4
GAMG:  Solving for p, Initial residual = 0.000438967, Final residual = 3.42793e-06, No Iterations 3
time step continuity errors : sum local = 0.0115116, global = -0.00106769, cumulative = -0.0160494
smoothSolver:  Solving for nuTilda, Initial residual = 0.00751471, Final residual = 0.000252636, No Iterations 4
bounding nuTilda, min: -0.000254986 max: 0.0374611 average: 0.00225683
ExecutionTime = 131.238 s  ClockTime = 131 s

Time = 40s

smoothSolver:  Solving for Ux, Initial residual = 0.0182425, Final residual = 0.000410679, No Iterations 4
smoothSolver:  Solving for Uy, Initial residual = 0.0785884, Final residual = 0.00165753, No Iterations 4
smoothSolver:  Solving for Uz, Initial residual = 0.0681367, Final residual = 0.00140583, No Iterations 4
GAMG:  Solving for p, Initial residual = 0.000425523, Final residual = 2.98603e-06, No Iterations 3
time step continuity errors : sum local = 0.0106581, global = -0.000345342, cumulative = -0.0163948
smoothSolver:  Solving for nuTilda, Initial residual = 0.00746175, Final residual = 0.000248579, No Iterations 4
bounding nuTilda, min: -0.00018138 max: 0.0374637 average: 0.00229791
ExecutionTime = 133.912 s  ClockTime = 134 s

Time = 41s

smoothSolver:  Solving for Ux, Initial residual = 0.0178535, Final residual = 0.000381677, No Iterations 4
smoothSolver:  Solving for Uy, Initial residual = 0.0801353, Final residual = 0.00166096, No Iterations 4
smoothSolver:  Solving for Uz, Initial residual = 0.0689972, Final residual = 0.00138164, No Iterations 4
GAMG:  Solving for p, Initial residual = 0.000414053, Final residual = 2.7973e-06, No Iterations 3
time step continuity errors : sum local = 0.0105908, global = 0.000243304, cumulative = -0.0161515
smoothSolver:  Solving for nuTilda, Initial residual = 0.00741681, Final residual = 0.000244663, No Iterations 4
bounding nuTilda, min: -0.000163569 max: 0.0374674 average: 0.00233869
ExecutionTime = 136.474 s  ClockTime = 136 s

Time = 42s

smoothSolver:  Solving for Ux, Initial residual = 0.0178705, Final residual = 0.000359047, No Iterations 4
smoothSolver:  Solving for Uy, Initial residual = 0.0807302, Final residual = 0.0016663, No Iterations 4
smoothSolver:  Solving for Uz, Initial residual = 0.0694569, Final residual = 0.00135249, No Iterations 4
GAMG:  Solving for p, Initial residual = 0.000398703, Final residual = 2.64145e-06, No Iterations 3
time step continuity errors : sum local = 0.0105853, global = 0.000907406, cumulative = -0.0152441
smoothSolver:  Solving for nuTilda, Initial residual = 0.00737507, Final residual = 0.000240838, No Iterations 4
bounding nuTilda, min: -0.000110795 max: 0.03747 average: 0.00237924
ExecutionTime = 139.089 s  ClockTime = 139 s

Time = 43s

smoothSolver:  Solving for Ux, Initial residual = 0.0183011, Final residual = 0.00181656, No Iterations 2
smoothSolver:  Solving for Uy, Initial residual = 0.0803157, Final residual = 0.00165933, No Iterations 4
smoothSolver:  Solving for Uz, Initial residual = 0.0693864, Final residual = 0.00134876, No Iterations 4
GAMG:  Solving for p, Initial residual = 0.000381597, Final residual = 2.48646e-06, No Iterations 3
time step continuity errors : sum local = 0.0104801, global = 0.00137427, cumulative = -0.0138698
smoothSolver:  Solving for nuTilda, Initial residual = 0.00733244, Final residual = 0.000237126, No Iterations 4
bounding nuTilda, min: -0.000160333 max: 0.0374717 average: 0.00241969
ExecutionTime = 141.597 s  ClockTime = 141 s

Time = 44s

smoothSolver:  Solving for Ux, Initial residual = 0.0187151, Final residual = 0.000385513, No Iterations 4
smoothSolver:  Solving for Uy, Initial residual = 0.0788246, Final residual = 0.00165484, No Iterations 4
smoothSolver:  Solving for Uz, Initial residual = 0.0683604, Final residual = 0.00134186, No Iterations 4
GAMG:  Solving for p, Initial residual = 0.000365197, Final residual = 2.40472e-06, No Iterations 3
time step continuity errors : sum local = 0.0105334, global = 0.00160506, cumulative = -0.0122647
smoothSolver:  Solving for nuTilda, Initial residual = 0.00729872, Final residual = 0.000233554, No Iterations 4
bounding nuTilda, min: -0.000227198 max: 0.0374728 average: 0.00246005
ExecutionTime = 144.356 s  ClockTime = 144 s

Time = 45s

smoothSolver:  Solving for Ux, Initial residual = 0.0184824, Final residual = 0.000383666, No Iterations 4
smoothSolver:  Solving for Uy, Initial residual = 0.0787105, Final residual = 0.00164335, No Iterations 4
smoothSolver:  Solving for Uz, Initial residual = 0.0685079, Final residual = 0.00135043, No Iterations 4
GAMG:  Solving for p, Initial residual = 0.000349155, Final residual = 2.48705e-06, No Iterations 3
time step continuity errors : sum local = 0.0111945, global = 0.000662507, cumulative = -0.0116022
smoothSolver:  Solving for nuTilda, Initial residual = 0.00726337, Final residual = 0.000230011, No Iterations 4
bounding nuTilda, min: -0.000303134 max: 0.0374764 average: 0.00250032
ExecutionTime = 146.952 s  ClockTime = 147 s

Time = 46s

smoothSolver:  Solving for Ux, Initial residual = 0.0181258, Final residual = 0.00037748, No Iterations 4
smoothSolver:  Solving for Uy, Initial residual = 0.0794147, Final residual = 0.00161563, No Iterations 4
smoothSolver:  Solving for Uz, Initial residual = 0.0690225, Final residual = 0.00133431, No Iterations 4
GAMG:  Solving for p, Initial residual = 0.000344628, Final residual = 2.24042e-06, No Iterations 3
time step continuity errors : sum local = 0.0100006, global = 0.000478457, cumulative = -0.0111238
smoothSolver:  Solving for nuTilda, Initial residual = 0.00722842, Final residual = 0.000226478, No Iterations 4
bounding nuTilda, min: -0.000282986 max: 0.0374795 average: 0.00254053
ExecutionTime = 149.943 s  ClockTime = 150 s

Time = 47s

smoothSolver:  Solving for Ux, Initial residual = 0.0179432, Final residual = 0.000381009, No Iterations 4
smoothSolver:  Solving for Uy, Initial residual = 0.0792169, Final residual = 0.00155916, No Iterations 4
smoothSolver:  Solving for Uz, Initial residual = 0.0691701, Final residual = 0.0068595, No Iterations 2
GAMG:  Solving for p, Initial residual = 0.000337295, Final residual = 1.80585e-06, No Iterations 3
time step continuity errors : sum local = 0.0080708, global = 0.00103059, cumulative = -0.0100932
smoothSolver:  Solving for nuTilda, Initial residual = 0.00719733, Final residual = 0.000222936, No Iterations 4
bounding nuTilda, min: -0.000230057 max: 0.0374818 average: 0.00258075
ExecutionTime = 155.12 s  ClockTime = 155 s

Time = 48s

smoothSolver:  Solving for Ux, Initial residual = 0.0180364, Final residual = 0.000378362, No Iterations 4
smoothSolver:  Solving for Uy, Initial residual = 0.0779505, Final residual = 0.00149731, No Iterations 4
smoothSolver:  Solving for Uz, Initial residual = 0.0693512, Final residual = 0.00690674, No Iterations 2
GAMG:  Solving for p, Initial residual = 0.000319708, Final residual = 1.69833e-06, No Iterations 3
time step continuity errors : sum local = 0.00783659, global = 0.000370985, cumulative = -0.0097222
smoothSolver:  Solving for nuTilda, Initial residual = 0.00716935, Final residual = 0.000219418, No Iterations 4
bounding nuTilda, min: -0.00020487 max: 0.0374836 average: 0.00262104
ExecutionTime = 159.452 s  ClockTime = 159 s

Time = 49s

smoothSolver:  Solving for Ux, Initial residual = 0.0180258, Final residual = 0.000374573, No Iterations 4
smoothSolver:  Solving for Uy, Initial residual = 0.0767688, Final residual = 0.00765837, No Iterations 2
smoothSolver:  Solving for Uz, Initial residual = 0.0691253, Final residual = 0.00130696, No Iterations 4
GAMG:  Solving for p, Initial residual = 0.000296029, Final residual = 1.79205e-06, No Iterations 3
time step continuity errors : sum local = 0.00860737, global = -0.000464608, cumulative = -0.0101868
smoothSolver:  Solving for nuTilda, Initial residual = 0.00714439, Final residual = 0.000216042, No Iterations 4
bounding nuTilda, min: -0.000216007 max: 0.0374855 average: 0.00266142
ExecutionTime = 163.723 s  ClockTime = 163 s

Time = 50s

smoothSolver:  Solving for Ux, Initial residual = 0.0177264, Final residual = 0.000368543, No Iterations 4
smoothSolver:  Solving for Uy, Initial residual = 0.0779885, Final residual = 0.00157815, No Iterations 4
smoothSolver:  Solving for Uz, Initial residual = 0.0675408, Final residual = 0.00660336, No Iterations 2
GAMG:  Solving for p, Initial residual = 0.000272854, Final residual = 1.99341e-06, No Iterations 3
time step continuity errors : sum local = 0.0100429, global = -0.000483723, cumulative = -0.0106705
smoothSolver:  Solving for nuTilda, Initial residual = 0.00712375, Final residual = 0.000212872, No Iterations 4
bounding nuTilda, min: -0.000235331 max: 0.0374892 average: 0.00270184
ExecutionTime = 168.639 s  ClockTime = 168 s

Time = 51s

smoothSolver:  Solving for Ux, Initial residual = 0.0172399, Final residual = 0.00170816, No Iterations 2
smoothSolver:  Solving for Uy, Initial residual = 0.0775397, Final residual = 0.00166074, No Iterations 4
smoothSolver:  Solving for Uz, Initial residual = 0.067469, Final residual = 0.00666802, No Iterations 2
GAMG:  Solving for p, Initial residual = 0.000249769, Final residual = 2.04923e-06, No Iterations 3
time step continuity errors : sum local = 0.0109222, global = 0.000344447, cumulative = -0.0103261
smoothSolver:  Solving for nuTilda, Initial residual = 0.00710594, Final residual = 0.000209924, No Iterations 4
bounding nuTilda, min: -0.000199167 max: 0.037492 average: 0.00274241
ExecutionTime = 173.283 s  ClockTime = 173 s

Time = 52s

smoothSolver:  Solving for Ux, Initial residual = 0.0171211, Final residual = 0.00170497, No Iterations 2
smoothSolver:  Solving for Uy, Initial residual = 0.0761465, Final residual = 0.00172473, No Iterations 4
smoothSolver:  Solving for Uz, Initial residual = 0.0669366, Final residual = 0.00134795, No Iterations 4
GAMG:  Solving for p, Initial residual = 0.000230787, Final residual = 1.92825e-06, No Iterations 3
time step continuity errors : sum local = 0.0109017, global = 0.000157372, cumulative = -0.0101687
smoothSolver:  Solving for nuTilda, Initial residual = 0.00709802, Final residual = 0.000207214, No Iterations 4
bounding nuTilda, min: -0.000260065 max: 0.037494 average: 0.00278306
ExecutionTime = 177.812 s  ClockTime = 177 s

Time = 53s

smoothSolver:  Solving for Ux, Initial residual = 0.0172492, Final residual = 0.00170597, No Iterations 2
smoothSolver:  Solving for Uy, Initial residual = 0.0749061, Final residual = 0.00175387, No Iterations 4
smoothSolver:  Solving for Uz, Initial residual = 0.0649306, Final residual = 0.00132066, No Iterations 4
GAMG:  Solving for p, Initial residual = 0.000219828, Final residual = 1.67942e-06, No Iterations 3
time step continuity errors : sum local = 0.00996493, global = -0.00101986, cumulative = -0.0111886
smoothSolver:  Solving for nuTilda, Initial residual = 0.00709355, Final residual = 0.000204634, No Iterations 4
bounding nuTilda, min: -0.000213471 max: 0.0374954 average: 0.00282385
ExecutionTime = 181.86 s  ClockTime = 182 s

Time = 54s

smoothSolver:  Solving for Ux, Initial residual = 0.0172197, Final residual = 0.00167549, No Iterations 2
smoothSolver:  Solving for Uy, Initial residual = 0.0743173, Final residual = 0.00176881, No Iterations 4
smoothSolver:  Solving for Uz, Initial residual = 0.0629835, Final residual = 0.0062978, No Iterations 2
GAMG:  Solving for p, Initial residual = 0.000211706, Final residual = 1.2869e-06, No Iterations 3
time step continuity errors : sum local = 0.00795057, global = -0.000265105, cumulative = -0.0114537
smoothSolver:  Solving for nuTilda, Initial residual = 0.00708851, Final residual = 0.000202127, No Iterations 4
bounding nuTilda, min: -0.000235348 max: 0.0374985 average: 0.00286469
ExecutionTime = 186.225 s  ClockTime = 186 s

Time = 55s

smoothSolver:  Solving for Ux, Initial residual = 0.0168356, Final residual = 0.00159043, No Iterations 2
smoothSolver:  Solving for Uy, Initial residual = 0.0741238, Final residual = 0.00176627, No Iterations 4
smoothSolver:  Solving for Uz, Initial residual = 0.0630118, Final residual = 0.0013474, No Iterations 4
GAMG:  Solving for p, Initial residual = 0.000202914, Final residual = 1.19148e-06, No Iterations 3
time step continuity errors : sum local = 0.00767125, global = -3.15174e-05, cumulative = -0.0114852
smoothSolver:  Solving for nuTilda, Initial residual = 0.00708621, Final residual = 0.000199705, No Iterations 4
bounding nuTilda, min: -0.000221714 max: 0.0375014 average: 0.00290562
ExecutionTime = 190.298 s  ClockTime = 190 s

Time = 56s

smoothSolver:  Solving for Ux, Initial residual = 0.0163781, Final residual = 0.00151106, No Iterations 2
smoothSolver:  Solving for Uy, Initial residual = 0.074014, Final residual = 0.00174501, No Iterations 4
smoothSolver:  Solving for Uz, Initial residual = 0.0626193, Final residual = 0.00132118, No Iterations 4
GAMG:  Solving for p, Initial residual = 0.000194382, Final residual = 1.12663e-06, No Iterations 3
time step continuity errors : sum local = 0.00754189, global = 8.69415e-05, cumulative = -0.0113983
smoothSolver:  Solving for nuTilda, Initial residual = 0.00708653, Final residual = 0.000197384, No Iterations 4
bounding nuTilda, min: -0.000238408 max: 0.0375036 average: 0.00294661
ExecutionTime = 194.119 s  ClockTime = 194 s

Time = 57s

smoothSolver:  Solving for Ux, Initial residual = 0.0160482, Final residual = 0.00145189, No Iterations 2
smoothSolver:  Solving for Uy, Initial residual = 0.0733879, Final residual = 0.00169258, No Iterations 4
smoothSolver:  Solving for Uz, Initial residual = 0.0620077, Final residual = 0.00127276, No Iterations 4
GAMG:  Solving for p, Initial residual = 0.000189037, Final residual = 1.05321e-06, No Iterations 3
time step continuity errors : sum local = 0.00731675, global = 0.000366063, cumulative = -0.0110322
smoothSolver:  Solving for nuTilda, Initial residual = 0.00709352, Final residual = 0.000195106, No Iterations 4
bounding nuTilda, min: -0.000235581 max: 0.0375054 average: 0.00298769
ExecutionTime = 198.667 s  ClockTime = 198 s

Time = 58s

smoothSolver:  Solving for Ux, Initial residual = 0.015946, Final residual = 0.00142212, No Iterations 2
smoothSolver:  Solving for Uy, Initial residual = 0.0725616, Final residual = 0.00163527, No Iterations 4
smoothSolver:  Solving for Uz, Initial residual = 0.0611873, Final residual = 0.00604156, No Iterations 2
GAMG:  Solving for p, Initial residual = 0.000184095, Final residual = 1.00499e-06, No Iterations 3
time step continuity errors : sum local = 0.00722404, global = 0.000783637, cumulative = -0.0102486
smoothSolver:  Solving for nuTilda, Initial residual = 0.00710454, Final residual = 0.000192877, No Iterations 4
bounding nuTilda, min: -0.000233396 max: 0.0375077 average: 0.00302882
ExecutionTime = 203.27 s  ClockTime = 203 s

Time = 59s

smoothSolver:  Solving for Ux, Initial residual = 0.0158339, Final residual = 0.00140329, No Iterations 2
smoothSolver:  Solving for Uy, Initial residual = 0.0715197, Final residual = 0.00156682, No Iterations 4
smoothSolver:  Solving for Uz, Initial residual = 0.0612836, Final residual = 0.00605264, No Iterations 2
GAMG:  Solving for p, Initial residual = 0.000176478, Final residual = 1.00499e-06, No Iterations 3
time step continuity errors : sum local = 0.00744602, global = 0.000868883, cumulative = -0.00937967
smoothSolver:  Solving for nuTilda, Initial residual = 0.00711949, Final residual = 0.000190718, No Iterations 4
bounding nuTilda, min: -0.000230755 max: 0.0375109 average: 0.00307004
ExecutionTime = 208.041 s  ClockTime = 208 s

Time = 60s

smoothSolver:  Solving for Ux, Initial residual = 0.0155883, Final residual = 0.00136799, No Iterations 2
smoothSolver:  Solving for Uy, Initial residual = 0.0708145, Final residual = 0.00150943, No Iterations 4
smoothSolver:  Solving for Uz, Initial residual = 0.0614448, Final residual = 0.00597765, No Iterations 2
GAMG:  Solving for p, Initial residual = 0.000169872, Final residual = 1.07631e-06, No Iterations 3
time step continuity errors : sum local = 0.0081813, global = 0.000247664, cumulative = -0.00913201
smoothSolver:  Solving for nuTilda, Initial residual = 0.00713707, Final residual = 0.000188568, No Iterations 4
bounding nuTilda, min: -0.000252418 max: 0.0375133 average: 0.00311137
ExecutionTime = 211.366 s  ClockTime = 211 s

Time = 61s

smoothSolver:  Solving for Ux, Initial residual = 0.015254, Final residual = 0.00131727, No Iterations 2
smoothSolver:  Solving for Uy, Initial residual = 0.0701795, Final residual = 0.00148203, No Iterations 4
smoothSolver:  Solving for Uz, Initial residual = 0.0611509, Final residual = 0.00592173, No Iterations 2
GAMG:  Solving for p, Initial residual = 0.000165313, Final residual = 1.04866e-06, No Iterations 3
time step continuity errors : sum local = 0.00812079, global = 0.000361154, cumulative = -0.00877085
smoothSolver:  Solving for nuTilda, Initial residual = 0.00715985, Final residual = 0.000186417, No Iterations 4
bounding nuTilda, min: -0.000264944 max: 0.0375151 average: 0.00315287
ExecutionTime = 214.722 s  ClockTime = 214 s

Time = 62s

smoothSolver:  Solving for Ux, Initial residual = 0.0149109, Final residual = 0.00127465, No Iterations 2
smoothSolver:  Solving for Uy, Initial residual = 0.0694359, Final residual = 0.00686227, No Iterations 2
smoothSolver:  Solving for Uz, Initial residual = 0.0603517, Final residual = 0.00587773, No Iterations 2
GAMG:  Solving for p, Initial residual = 0.000158801, Final residual = 8.20171e-07, No Iterations 3
time step continuity errors : sum local = 0.00644248, global = 0.000447939, cumulative = -0.00832291
smoothSolver:  Solving for nuTilda, Initial residual = 0.00718512, Final residual = 0.000184305, No Iterations 4
bounding nuTilda, min: -0.00024606 max: 0.0375172 average: 0.00319463
ExecutionTime = 219.237 s  ClockTime = 219 s

Time = 63s

smoothSolver:  Solving for Ux, Initial residual = 0.0146341, Final residual = 0.00124472, No Iterations 2
smoothSolver:  Solving for Uy, Initial residual = 0.0698589, Final residual = 0.00696149, No Iterations 2
smoothSolver:  Solving for Uz, Initial residual = 0.0589882, Final residual = 0.00578677, No Iterations 2
GAMG:  Solving for p, Initial residual = 0.000147164, Final residual = 7.1922e-07, No Iterations 3
time step continuity errors : sum local = 0.00579329, global = 2.91178e-05, cumulative = -0.0082938
smoothSolver:  Solving for nuTilda, Initial residual = 0.00721656, Final residual = 0.000182307, No Iterations 4
bounding nuTilda, min: -0.000235074 max: 0.0375204 average: 0.00323671
ExecutionTime = 223.525 s  ClockTime = 223 s

Time = 64s

smoothSolver:  Solving for Ux, Initial residual = 0.0144008, Final residual = 0.00123091, No Iterations 2
smoothSolver:  Solving for Uy, Initial residual = 0.0699667, Final residual = 0.00151098, No Iterations 4
smoothSolver:  Solving for Uz, Initial residual = 0.0577507, Final residual = 0.00567803, No Iterations 2
GAMG:  Solving for p, Initial residual = 0.000134917, Final residual = 6.92264e-07, No Iterations 3
time step continuity errors : sum local = 0.00573094, global = -0.00029608, cumulative = -0.00858988
smoothSolver:  Solving for nuTilda, Initial residual = 0.00725244, Final residual = 0.000180382, No Iterations 4
bounding nuTilda, min: -0.0002413 max: 0.0375229 average: 0.0032791
ExecutionTime = 227.423 s  ClockTime = 227 s

Time = 65s

smoothSolver:  Solving for Ux, Initial residual = 0.0140912, Final residual = 0.00122043, No Iterations 2
smoothSolver:  Solving for Uy, Initial residual = 0.06859, Final residual = 0.0067064, No Iterations 2
smoothSolver:  Solving for Uz, Initial residual = 0.0569869, Final residual = 0.00555424, No Iterations 2
GAMG:  Solving for p, Initial residual = 0.000124731, Final residual = 7.84166e-07, No Iterations 3
time step continuity errors : sum local = 0.00667507, global = -0.000302874, cumulative = -0.00889275
smoothSolver:  Solving for nuTilda, Initial residual = 0.00729161, Final residual = 0.000178521, No Iterations 4
bounding nuTilda, min: -0.000276067 max: 0.0375249 average: 0.00332182
ExecutionTime = 231.997 s  ClockTime = 232 s

Time = 66s

smoothSolver:  Solving for Ux, Initial residual = 0.0136477, Final residual = 0.00118826, No Iterations 2
smoothSolver:  Solving for Uy, Initial residual = 0.0685621, Final residual = 0.0067469, No Iterations 2
smoothSolver:  Solving for Uz, Initial residual = 0.0562449, Final residual = 0.00543532, No Iterations 2
GAMG:  Solving for p, Initial residual = 0.000115253, Final residual = 8.79893e-07, No Iterations 3
time step continuity errors : sum local = 0.00772397, global = -0.000197984, cumulative = -0.00909073
smoothSolver:  Solving for nuTilda, Initial residual = 0.00733241, Final residual = 0.000176727, No Iterations 4
bounding nuTilda, min: -0.000251612 max: 0.0375265 average: 0.00336487
ExecutionTime = 237.102 s  ClockTime = 237 s

Time = 67s

smoothSolver:  Solving for Ux, Initial residual = 0.0131673, Final residual = 0.0011377, No Iterations 2
smoothSolver:  Solving for Uy, Initial residual = 0.0688069, Final residual = 0.00152963, No Iterations 4
smoothSolver:  Solving for Uz, Initial residual = 0.0552878, Final residual = 0.00539617, No Iterations 2
GAMG:  Solving for p, Initial residual = 0.000106172, Final residual = 6.90698e-07, No Iterations 3
time step continuity errors : sum local = 0.00632348, global = -0.000182005, cumulative = -0.00927274
smoothSolver:  Solving for nuTilda, Initial residual = 0.0073779, Final residual = 0.000174922, No Iterations 4
bounding nuTilda, min: -0.000237257 max: 0.0375298 average: 0.00340822
ExecutionTime = 240.399 s  ClockTime = 240 s

Time = 68s

smoothSolver:  Solving for Ux, Initial residual = 0.0128405, Final residual = 0.00111777, No Iterations 2
smoothSolver:  Solving for Uy, Initial residual = 0.0677483, Final residual = 0.00671249, No Iterations 2
smoothSolver:  Solving for Uz, Initial residual = 0.0544594, Final residual = 0.00540873, No Iterations 2
GAMG:  Solving for p, Initial residual = 9.89349e-05, Final residual = 5.73727e-07, No Iterations 3
time step continuity errors : sum local = 0.0054177, global = -7.24574e-06, cumulative = -0.00927998
smoothSolver:  Solving for nuTilda, Initial residual = 0.00742115, Final residual = 0.000173085, No Iterations 4
bounding nuTilda, min: -0.000236587 max: 0.0375324 average: 0.00345187
ExecutionTime = 243.344 s  ClockTime = 243 s

Time = 69s

smoothSolver:  Solving for Ux, Initial residual = 0.0125519, Final residual = 0.0011137, No Iterations 2
smoothSolver:  Solving for Uy, Initial residual = 0.067713, Final residual = 0.00671118, No Iterations 2
smoothSolver:  Solving for Uz, Initial residual = 0.0535083, Final residual = 0.00532308, No Iterations 2
GAMG:  Solving for p, Initial residual = 9.26389e-05, Final residual = 5.54758e-07, No Iterations 3
time step continuity errors : sum local = 0.00536575, global = 3.4123e-05, cumulative = -0.00924586
smoothSolver:  Solving for nuTilda, Initial residual = 0.00746659, Final residual = 0.000171237, No Iterations 4
bounding nuTilda, min: -0.000254403 max: 0.0375345 average: 0.0034958
ExecutionTime = 246.201 s  ClockTime = 246 s

Time = 70s

smoothSolver:  Solving for Ux, Initial residual = 0.0122225, Final residual = 0.00110389, No Iterations 2
smoothSolver:  Solving for Uy, Initial residual = 0.0674939, Final residual = 0.00152566, No Iterations 4
smoothSolver:  Solving for Uz, Initial residual = 0.0526812, Final residual = 0.00524638, No Iterations 2
GAMG:  Solving for p, Initial residual = 8.76713e-05, Final residual = 5.52034e-07, No Iterations 3
time step continuity errors : sum local = 0.00545253, global = -0.000140972, cumulative = -0.00938683
smoothSolver:  Solving for nuTilda, Initial residual = 0.00751077, Final residual = 0.000169329, No Iterations 4
bounding nuTilda, min: -0.000238233 max: 0.0375361 average: 0.00353995
ExecutionTime = 249.059 s  ClockTime = 249 s

Time = 71s

smoothSolver:  Solving for Ux, Initial residual = 0.0118397, Final residual = 0.00109357, No Iterations 2
smoothSolver:  Solving for Uy, Initial residual = 0.0656488, Final residual = 0.00145728, No Iterations 4
smoothSolver:  Solving for Uz, Initial residual = 0.0519831, Final residual = 0.00113933, No Iterations 4
GAMG:  Solving for p, Initial residual = 8.41904e-05, Final residual = 5.80387e-07, No Iterations 3
time step continuity errors : sum local = 0.00584705, global = -0.000338531, cumulative = -0.00972536
smoothSolver:  Solving for nuTilda, Initial residual = 0.00755196, Final residual = 0.000167382, No Iterations 4
bounding nuTilda, min: -0.000252219 max: 0.0375388 average: 0.00358438
ExecutionTime = 251.785 s  ClockTime = 251 s

Time = 72s

smoothSolver:  Solving for Ux, Initial residual = 0.0114546, Final residual = 0.00107596, No Iterations 2
smoothSolver:  Solving for Uy, Initial residual = 0.0640204, Final residual = 0.00139135, No Iterations 4
smoothSolver:  Solving for Uz, Initial residual = 0.0501112, Final residual = 0.00491498, No Iterations 2
GAMG:  Solving for p, Initial residual = 8.0507e-05, Final residual = 5.45176e-07, No Iterations 3
time step continuity errors : sum local = 0.00559934, global = -0.000265083, cumulative = -0.00999045
smoothSolver:  Solving for nuTilda, Initial residual = 0.0075834, Final residual = 0.000165438, No Iterations 4
bounding nuTilda, min: -0.000265293 max: 0.0375414 average: 0.00362918
ExecutionTime = 254.565 s  ClockTime = 254 s

Time = 73s

smoothSolver:  Solving for Ux, Initial residual = 0.0110954, Final residual = 0.00105272, No Iterations 2
smoothSolver:  Solving for Uy, Initial residual = 0.0625958, Final residual = 0.00621565, No Iterations 2
smoothSolver:  Solving for Uz, Initial residual = 0.0493017, Final residual = 0.00489925, No Iterations 2
GAMG:  Solving for p, Initial residual = 7.69153e-05, Final residual = 4.98801e-07, No Iterations 3
time step continuity errors : sum local = 0.00521021, global = -8.12139e-05, cumulative = -0.0100717
smoothSolver:  Solving for nuTilda, Initial residual = 0.00761153, Final residual = 0.000163575, No Iterations 4
bounding nuTilda, min: -0.000250012 max: 0.0375434 average: 0.00367446
ExecutionTime = 257.439 s  ClockTime = 257 s

Time = 74s

smoothSolver:  Solving for Ux, Initial residual = 0.0107406, Final residual = 0.00102701, No Iterations 2
smoothSolver:  Solving for Uy, Initial residual = 0.0627335, Final residual = 0.00138721, No Iterations 4
smoothSolver:  Solving for Uz, Initial residual = 0.0486693, Final residual = 0.000998673, No Iterations 4
GAMG:  Solving for p, Initial residual = 7.40515e-05, Final residual = 4.86531e-07, No Iterations 3
time step continuity errors : sum local = 0.00514342, global = 3.79908e-05, cumulative = -0.0100337
smoothSolver:  Solving for nuTilda, Initial residual = 0.00763748, Final residual = 0.000161833, No Iterations 4
bounding nuTilda, min: -0.000244325 max: 0.037545 average: 0.00372028
ExecutionTime = 260.28 s  ClockTime = 260 s

Time = 75s

smoothSolver:  Solving for Ux, Initial residual = 0.0104084, Final residual = 0.00100117, No Iterations 2
smoothSolver:  Solving for Uy, Initial residual = 0.0614564, Final residual = 0.00607254, No Iterations 2
smoothSolver:  Solving for Uz, Initial residual = 0.0470126, Final residual = 0.00458428, No Iterations 2
GAMG:  Solving for p, Initial residual = 7.10908e-05, Final residual = 4.65698e-07, No Iterations 3
time step continuity errors : sum local = 0.00496377, global = 0.000261187, cumulative = -0.00977248
smoothSolver:  Solving for nuTilda, Initial residual = 0.00766458, Final residual = 0.00016024, No Iterations 4
bounding nuTilda, min: -0.000223549 max: 0.0375473 average: 0.00376678
ExecutionTime = 263.072 s  ClockTime = 263 s

Time = 76s

smoothSolver:  Solving for Ux, Initial residual = 0.0100215, Final residual = 0.000958335, No Iterations 2
smoothSolver:  Solving for Uy, Initial residual = 0.060853, Final residual = 0.00130846, No Iterations 4
smoothSolver:  Solving for Uz, Initial residual = 0.0461605, Final residual = 0.00448834, No Iterations 2
GAMG:  Solving for p, Initial residual = 6.90174e-05, Final residual = 4.66139e-07, No Iterations 3
time step continuity errors : sum local = 0.0049757, global = 0.00043206, cumulative = -0.00934042
smoothSolver:  Solving for nuTilda, Initial residual = 0.00769454, Final residual = 0.000158697, No Iterations 4
bounding nuTilda, min: -0.000230433 max: 0.0377931 average: 0.00381396
ExecutionTime = 265.846 s  ClockTime = 265 s

Time = 77s

smoothSolver:  Solving for Ux, Initial residual = 0.00964913, Final residual = 0.000916225, No Iterations 2
smoothSolver:  Solving for Uy, Initial residual = 0.0587902, Final residual = 0.00587496, No Iterations 2
smoothSolver:  Solving for Uz, Initial residual = 0.0454966, Final residual = 0.00442058, No Iterations 2
GAMG:  Solving for p, Initial residual = 6.79809e-05, Final residual = 5.19645e-07, No Iterations 3
time step continuity errors : sum local = 0.00552937, global = 0.000251358, cumulative = -0.00908907
smoothSolver:  Solving for nuTilda, Initial residual = 0.00772658, Final residual = 0.000157251, No Iterations 4
bounding nuTilda, min: -0.000249737 max: 0.0384258 average: 0.00386186
ExecutionTime = 268.747 s  ClockTime = 268 s

Time = 78s

smoothSolver:  Solving for Ux, Initial residual = 0.00930453, Final residual = 0.000875508, No Iterations 2
smoothSolver:  Solving for Uy, Initial residual = 0.0581562, Final residual = 0.00120035, No Iterations 4
smoothSolver:  Solving for Uz, Initial residual = 0.0445745, Final residual = 0.00431045, No Iterations 2
GAMG:  Solving for p, Initial residual = 6.84023e-05, Final residual = 4.78522e-07, No Iterations 3
time step continuity errors : sum local = 0.00503379, global = 0.000468617, cumulative = -0.00862045
smoothSolver:  Solving for nuTilda, Initial residual = 0.00776361, Final residual = 0.000155904, No Iterations 4
bounding nuTilda, min: -0.000251687 max: 0.0390427 average: 0.00391047
ExecutionTime = 271.666 s  ClockTime = 271 s

Time = 79s

smoothSolver:  Solving for Ux, Initial residual = 0.00903221, Final residual = 0.000844155, No Iterations 2
smoothSolver:  Solving for Uy, Initial residual = 0.056546, Final residual = 0.00553583, No Iterations 2
smoothSolver:  Solving for Uz, Initial residual = 0.0434397, Final residual = 0.0041877, No Iterations 2
GAMG:  Solving for p, Initial residual = 6.87016e-05, Final residual = 4.02768e-07, No Iterations 3
time step continuity errors : sum local = 0.00419465, global = 0.000457568, cumulative = -0.00816288
smoothSolver:  Solving for nuTilda, Initial residual = 0.00779673, Final residual = 0.000154575, No Iterations 4
bounding nuTilda, min: -0.000229596 max: 0.0396601 average: 0.00395978
ExecutionTime = 274.467 s  ClockTime = 274 s

Time = 80s

smoothSolver:  Solving for Ux, Initial residual = 0.00876996, Final residual = 0.000816467, No Iterations 2
smoothSolver:  Solving for Uy, Initial residual = 0.0561146, Final residual = 0.00549886, No Iterations 2
smoothSolver:  Solving for Uz, Initial residual = 0.0420425, Final residual = 0.00404073, No Iterations 2
GAMG:  Solving for p, Initial residual = 6.83783e-05, Final residual = 3.81505e-07, No Iterations 3
time step continuity errors : sum local = 0.00394617, global = 1.6093e-05, cumulative = -0.00814679
smoothSolver:  Solving for nuTilda, Initial residual = 0.00782638, Final residual = 0.000153279, No Iterations 4
bounding nuTilda, min: -0.000247009 max: 0.04024 average: 0.00400974
ExecutionTime = 277.328 s  ClockTime = 277 s

Time = 81s

smoothSolver:  Solving for Ux, Initial residual = 0.00849441, Final residual = 0.000787859, No Iterations 2
smoothSolver:  Solving for Uy, Initial residual = 0.0556712, Final residual = 0.00546499, No Iterations 2
smoothSolver:  Solving for Uz, Initial residual = 0.0408083, Final residual = 0.00393031, No Iterations 2
GAMG:  Solving for p, Initial residual = 6.74702e-05, Final residual = 4.53468e-07, No Iterations 3
time step continuity errors : sum local = 0.00466375, global = -0.000133457, cumulative = -0.00828024
smoothSolver:  Solving for nuTilda, Initial residual = 0.00785059, Final residual = 0.00015216, No Iterations 4
bounding nuTilda, min: -0.000223582 max: 0.0407842 average: 0.00406029
ExecutionTime = 280.078 s  ClockTime = 280 s

Time = 82s

smoothSolver:  Solving for Ux, Initial residual = 0.00821756, Final residual = 0.000756486, No Iterations 2
smoothSolver:  Solving for Uy, Initial residual = 0.0550579, Final residual = 0.00541181, No Iterations 2
smoothSolver:  Solving for Uz, Initial residual = 0.0398036, Final residual = 0.00387903, No Iterations 2
GAMG:  Solving for p, Initial residual = 6.52483e-05, Final residual = 5.43842e-07, No Iterations 3
time step continuity errors : sum local = 0.00563875, global = 0.000109109, cumulative = -0.00817114
smoothSolver:  Solving for nuTilda, Initial residual = 0.00786921, Final residual = 0.0001512, No Iterations 4
bounding nuTilda, min: -0.000254317 max: 0.0413474 average: 0.0041115
ExecutionTime = 282.756 s  ClockTime = 282 s

Time = 83s

smoothSolver:  Solving for Ux, Initial residual = 0.0079757, Final residual = 0.00072493, No Iterations 2
smoothSolver:  Solving for Uy, Initial residual = 0.0543244, Final residual = 0.00533675, No Iterations 2
smoothSolver:  Solving for Uz, Initial residual = 0.0389869, Final residual = 0.0038589, No Iterations 2
GAMG:  Solving for p, Initial residual = 6.335e-05, Final residual = 4.96614e-07, No Iterations 3
time step continuity errors : sum local = 0.00521152, global = -5.81573e-05, cumulative = -0.00822929
smoothSolver:  Solving for nuTilda, Initial residual = 0.00788094, Final residual = 0.000150373, No Iterations 4
bounding nuTilda, min: -0.000216883 max: 0.0418874 average: 0.00416342
ExecutionTime = 285.467 s  ClockTime = 285 s

Time = 84s

smoothSolver:  Solving for Ux, Initial residual = 0.00777405, Final residual = 0.000700081, No Iterations 2
smoothSolver:  Solving for Uy, Initial residual = 0.0536763, Final residual = 0.00525856, No Iterations 2
smoothSolver:  Solving for Uz, Initial residual = 0.0382901, Final residual = 0.000742121, No Iterations 4
GAMG:  Solving for p, Initial residual = 6.13862e-05, Final residual = 3.92195e-07, No Iterations 3
time step continuity errors : sum local = 0.00414624, global = -0.000447907, cumulative = -0.0086772
smoothSolver:  Solving for nuTilda, Initial residual = 0.0078848, Final residual = 0.000149636, No Iterations 4
bounding nuTilda, min: -0.000238172 max: 0.0423972 average: 0.0042161
ExecutionTime = 288.438 s  ClockTime = 288 s

Time = 85s

smoothSolver:  Solving for Ux, Initial residual = 0.00756895, Final residual = 0.000678679, No Iterations 2
smoothSolver:  Solving for Uy, Initial residual = 0.0530953, Final residual = 0.00518399, No Iterations 2
smoothSolver:  Solving for Uz, Initial residual = 0.0366981, Final residual = 0.00356628, No Iterations 2
GAMG:  Solving for p, Initial residual = 5.93206e-05, Final residual = 3.41882e-07, No Iterations 3
time step continuity errors : sum local = 0.00362992, global = -0.000336306, cumulative = -0.00901351
smoothSolver:  Solving for nuTilda, Initial residual = 0.00788002, Final residual = 0.000149, No Iterations 4
bounding nuTilda, min: -0.000238071 max: 0.0429457 average: 0.0042696
ExecutionTime = 291.255 s  ClockTime = 291 s

Time = 86s

smoothSolver:  Solving for Ux, Initial residual = 0.00730738, Final residual = 0.00064659, No Iterations 2
smoothSolver:  Solving for Uy, Initial residual = 0.0524335, Final residual = 0.00504469, No Iterations 2
smoothSolver:  Solving for Uz, Initial residual = 0.0360104, Final residual = 0.00351115, No Iterations 2
GAMG:  Solving for p, Initial residual = 5.76934e-05, Final residual = 3.29009e-07, No Iterations 3
time step continuity errors : sum local = 0.00351401, global = 0.000108282, cumulative = -0.00890522
smoothSolver:  Solving for nuTilda, Initial residual = 0.00786712, Final residual = 0.000148424, No Iterations 4
bounding nuTilda, min: -0.000252346 max: 0.0437219 average: 0.00432399
ExecutionTime = 294.179 s  ClockTime = 294 s

Time = 87s

smoothSolver:  Solving for Ux, Initial residual = 0.00702635, Final residual = 0.000615393, No Iterations 2
smoothSolver:  Solving for Uy, Initial residual = 0.0515757, Final residual = 0.00489425, No Iterations 2
smoothSolver:  Solving for Uz, Initial residual = 0.035509, Final residual = 0.00351228, No Iterations 2
GAMG:  Solving for p, Initial residual = 5.607e-05, Final residual = 3.52465e-07, No Iterations 3
time step continuity errors : sum local = 0.00378111, global = 0.000503493, cumulative = -0.00840173
smoothSolver:  Solving for nuTilda, Initial residual = 0.00785208, Final residual = 0.000147853, No Iterations 4
bounding nuTilda, min: -0.000204976 max: 0.044441 average: 0.00437921
ExecutionTime = 297.022 s  ClockTime = 297 s

Time = 88s

smoothSolver:  Solving for Ux, Initial residual = 0.00675497, Final residual = 0.00058881, No Iterations 2
smoothSolver:  Solving for Uy, Initial residual = 0.0506229, Final residual = 0.00476572, No Iterations 2
smoothSolver:  Solving for Uz, Initial residual = 0.0348998, Final residual = 0.00348338, No Iterations 2
GAMG:  Solving for p, Initial residual = 5.42287e-05, Final residual = 4.35814e-07, No Iterations 3
time step continuity errors : sum local = 0.00470253, global = 0.000276913, cumulative = -0.00812482
smoothSolver:  Solving for nuTilda, Initial residual = 0.00783389, Final residual = 0.000147258, No Iterations 4
bounding nuTilda, min: -0.000221639 max: 0.0451749 average: 0.00443512
ExecutionTime = 299.852 s  ClockTime = 300 s

Time = 89s

smoothSolver:  Solving for Ux, Initial residual = 0.00651389, Final residual = 0.00056628, No Iterations 2
smoothSolver:  Solving for Uy, Initial residual = 0.0496342, Final residual = 0.00463581, No Iterations 2
smoothSolver:  Solving for Uz, Initial residual = 0.0340765, Final residual = 0.000651528, No Iterations 4
GAMG:  Solving for p, Initial residual = 5.29307e-05, Final residual = 4.25755e-07, No Iterations 3
time step continuity errors : sum local = 0.00460224, global = 0.000247042, cumulative = -0.00787778
smoothSolver:  Solving for nuTilda, Initial residual = 0.00781782, Final residual = 0.000146646, No Iterations 4
bounding nuTilda, min: -0.00022385 max: 0.0458575 average: 0.00449166
ExecutionTime = 302.605 s  ClockTime = 302 s

Time = 90s

smoothSolver:  Solving for Ux, Initial residual = 0.00631854, Final residual = 0.00055208, No Iterations 2
smoothSolver:  Solving for Uy, Initial residual = 0.0486567, Final residual = 0.00452743, No Iterations 2
smoothSolver:  Solving for Uz, Initial residual = 0.0324137, Final residual = 0.00317694, No Iterations 2
GAMG:  Solving for p, Initial residual = 5.09606e-05, Final residual = 3.10291e-07, No Iterations 3
time step continuity errors : sum local = 0.00335846, global = 0.000351377, cumulative = -0.0075264
smoothSolver:  Solving for nuTilda, Initial residual = 0.00779496, Final residual = 0.000146012, No Iterations 4
bounding nuTilda, min: -0.000232757 max: 0.046507 average: 0.0045487
ExecutionTime = 305.473 s  ClockTime = 305 s

Time = 91s

smoothSolver:  Solving for Ux, Initial residual = 0.00608485, Final residual = 0.000532804, No Iterations 2
smoothSolver:  Solving for Uy, Initial residual = 0.0475197, Final residual = 0.00441061, No Iterations 2
smoothSolver:  Solving for Uz, Initial residual = 0.0315734, Final residual = 0.00314779, No Iterations 2
GAMG:  Solving for p, Initial residual = 4.84771e-05, Final residual = 2.71674e-07, No Iterations 3
time step continuity errors : sum local = 0.00297691, global = 0.000213131, cumulative = -0.00731327
smoothSolver:  Solving for nuTilda, Initial residual = 0.00776612, Final residual = 0.000145384, No Iterations 4
bounding nuTilda, min: -0.00023778 max: 0.0471728 average: 0.00460608
ExecutionTime = 308.157 s  ClockTime = 308 s

Time = 92s

smoothSolver:  Solving for Ux, Initial residual = 0.0058309, Final residual = 0.000513772, No Iterations 2
smoothSolver:  Solving for Uy, Initial residual = 0.0464145, Final residual = 0.00432817, No Iterations 2
smoothSolver:  Solving for Uz, Initial residual = 0.0309044, Final residual = 0.000614024, No Iterations 4
GAMG:  Solving for p, Initial residual = 4.61225e-05, Final residual = 2.64936e-07, No Iterations 3
time step continuity errors : sum local = 0.00294859, global = 5.26064e-05, cumulative = -0.00726066
smoothSolver:  Solving for nuTilda, Initial residual = 0.00773021, Final residual = 0.000144767, No Iterations 4
bounding nuTilda, min: -0.000248459 max: 0.0477941 average: 0.00466368
ExecutionTime = 310.996 s  ClockTime = 311 s

Time = 93s

smoothSolver:  Solving for Ux, Initial residual = 0.00561281, Final residual = 0.000501693, No Iterations 2
smoothSolver:  Solving for Uy, Initial residual = 0.0453724, Final residual = 0.00426413, No Iterations 2
smoothSolver:  Solving for Uz, Initial residual = 0.0294638, Final residual = 0.000576316, No Iterations 4
GAMG:  Solving for p, Initial residual = 4.39289e-05, Final residual = 2.61911e-07, No Iterations 3
time step continuity errors : sum local = 0.00297475, global = -6.10718e-05, cumulative = -0.00732173
smoothSolver:  Solving for nuTilda, Initial residual = 0.00768968, Final residual = 0.000144123, No Iterations 4
bounding nuTilda, min: -0.000341858 max: 0.0483692 average: 0.00472137
ExecutionTime = 313.949 s  ClockTime = 314 s

Time = 94s

smoothSolver:  Solving for Ux, Initial residual = 0.00542674, Final residual = 0.000492119, No Iterations 2
smoothSolver:  Solving for Uy, Initial residual = 0.044189, Final residual = 0.00418167, No Iterations 2
smoothSolver:  Solving for Uz, Initial residual = 0.0279811, Final residual = 0.000534428, No Iterations 4
GAMG:  Solving for p, Initial residual = 4.17791e-05, Final residual = 2.47514e-07, No Iterations 3
time step continuity errors : sum local = 0.00287845, global = -9.64284e-05, cumulative = -0.00741816
smoothSolver:  Solving for nuTilda, Initial residual = 0.00764318, Final residual = 0.000143435, No Iterations 4
bounding nuTilda, min: -0.000309398 max: 0.0489638 average: 0.00477907
ExecutionTime = 316.755 s  ClockTime = 316 s

Time = 95s

smoothSolver:  Solving for Ux, Initial residual = 0.005252, Final residual = 0.000477608, No Iterations 2
smoothSolver:  Solving for Uy, Initial residual = 0.0427989, Final residual = 0.00406272, No Iterations 2
smoothSolver:  Solving for Uz, Initial residual = 0.026658, Final residual = 0.000504724, No Iterations 4
GAMG:  Solving for p, Initial residual = 3.95719e-05, Final residual = 2.23408e-07, No Iterations 3
time step continuity errors : sum local = 0.00266713, global = -3.98407e-05, cumulative = -0.007458
smoothSolver:  Solving for nuTilda, Initial residual = 0.00759258, Final residual = 0.000142677, No Iterations 4
bounding nuTilda, min: -0.000392692 max: 0.0495263 average: 0.00483674
ExecutionTime = 320.499 s  ClockTime = 320 s

Time = 96s

smoothSolver:  Solving for Ux, Initial residual = 0.0050688, Final residual = 0.00045715, No Iterations 2
smoothSolver:  Solving for Uy, Initial residual = 0.0413228, Final residual = 0.00393749, No Iterations 2
smoothSolver:  Solving for Uz, Initial residual = 0.0255801, Final residual = 0.000493195, No Iterations 4
GAMG:  Solving for p, Initial residual = 3.7791e-05, Final residual = 2.0393e-07, No Iterations 3
time step continuity errors : sum local = 0.00250227, global = 0.000128174, cumulative = -0.00732983
smoothSolver:  Solving for nuTilda, Initial residual = 0.00754527, Final residual = 0.00014181, No Iterations 4
bounding nuTilda, min: -0.000326739 max: 0.0500887 average: 0.00489438
ExecutionTime = 323.454 s  ClockTime = 323 s

Time = 97s

smoothSolver:  Solving for Ux, Initial residual = 0.00487768, Final residual = 0.000436473, No Iterations 2
smoothSolver:  Solving for Uy, Initial residual = 0.0397976, Final residual = 0.00382631, No Iterations 2
smoothSolver:  Solving for Uz, Initial residual = 0.0246267, Final residual = 0.000490303, No Iterations 4
GAMG:  Solving for p, Initial residual = 3.66218e-05, Final residual = 2.21838e-07, No Iterations 3
time step continuity errors : sum local = 0.00276212, global = 0.00026758, cumulative = -0.00706225
smoothSolver:  Solving for nuTilda, Initial residual = 0.0075018, Final residual = 0.000140749, No Iterations 4
bounding nuTilda, min: -0.000400223 max: 0.0506421 average: 0.00495208
ExecutionTime = 328.702 s  ClockTime = 328 s

Time = 98s

smoothSolver:  Solving for Ux, Initial residual = 0.0047079, Final residual = 0.000419465, No Iterations 2
smoothSolver:  Solving for Uy, Initial residual = 0.0384463, Final residual = 0.00373038, No Iterations 2
smoothSolver:  Solving for Uz, Initial residual = 0.0236471, Final residual = 0.000484258, No Iterations 4
GAMG:  Solving for p, Initial residual = 3.61338e-05, Final residual = 2.53371e-07, No Iterations 3
time step continuity errors : sum local = 0.00314675, global = 0.000153063, cumulative = -0.00690919
smoothSolver:  Solving for nuTilda, Initial residual = 0.00745738, Final residual = 0.000139542, No Iterations 4
bounding nuTilda, min: -0.000399395 max: 0.0512171 average: 0.00500997
ExecutionTime = 332.802 s  ClockTime = 332 s

Time = 99s

smoothSolver:  Solving for Ux, Initial residual = 0.00456856, Final residual = 0.000407984, No Iterations 2
smoothSolver:  Solving for Uy, Initial residual = 0.0372827, Final residual = 0.00364481, No Iterations 2
smoothSolver:  Solving for Uz, Initial residual = 0.0227291, Final residual = 0.000472171, No Iterations 4
GAMG:  Solving for p, Initial residual = 3.59085e-05, Final residual = 2.34736e-07, No Iterations 3
time step continuity errors : sum local = 0.00287036, global = 0.000162636, cumulative = -0.00674655
smoothSolver:  Solving for nuTilda, Initial residual = 0.00741703, Final residual = 0.000138267, No Iterations 4
bounding nuTilda, min: -0.00039682 max: 0.0518324 average: 0.00506815
ExecutionTime = 336.098 s  ClockTime = 336 s

Time = 100s

smoothSolver:  Solving for Ux, Initial residual = 0.00443351, Final residual = 0.000397701, No Iterations 2
smoothSolver:  Solving for Uy, Initial residual = 0.0361302, Final residual = 0.00352207, No Iterations 2
smoothSolver:  Solving for Uz, Initial residual = 0.0218209, Final residual = 0.000457279, No Iterations 4
GAMG:  Solving for p, Initial residual = 3.75872e-05, Final residual = 2.01701e-07, No Iterations 3
time step continuity errors : sum local = 0.00230519, global = 0.000217772, cumulative = -0.00652878
smoothSolver:  Solving for nuTilda, Initial residual = 0.00737503, Final residual = 0.000136946, No Iterations 4
bounding nuTilda, min: -0.000440521 max: 0.0524779 average: 0.00512661
ExecutionTime = 339.119 s  ClockTime = 339 s

Time = 101s

smoothSolver:  Solving for Ux, Initial residual = 0.0042953, Final residual = 0.000387442, No Iterations 2
smoothSolver:  Solving for Uy, Initial residual = 0.0349968, Final residual = 0.0033988, No Iterations 2
smoothSolver:  Solving for Uz, Initial residual = 0.0209633, Final residual = 0.000445257, No Iterations 4
GAMG:  Solving for p, Initial residual = 3.89174e-05, Final residual = 2.0258e-07, No Iterations 3
time step continuity errors : sum local = 0.00218852, global = 0.000156976, cumulative = -0.0063718
smoothSolver:  Solving for nuTilda, Initial residual = 0.00733396, Final residual = 0.000135618, No Iterations 4
bounding nuTilda, min: -0.000335845 max: 0.053149 average: 0.00518532
ExecutionTime = 341.833 s  ClockTime = 341 s

Time = 102s

smoothSolver:  Solving for Ux, Initial residual = 0.00415575, Final residual = 0.000379282, No Iterations 2
smoothSolver:  Solving for Uy, Initial residual = 0.0340055, Final residual = 0.00328811, No Iterations 2
smoothSolver:  Solving for Uz, Initial residual = 0.0201981, Final residual = 0.00043629, No Iterations 4
GAMG:  Solving for p, Initial residual = 3.94796e-05, Final residual = 2.04029e-07, No Iterations 3
time step continuity errors : sum local = 0.00213949, global = 0.00012578, cumulative = -0.00624602
smoothSolver:  Solving for nuTilda, Initial residual = 0.00729294, Final residual = 0.000134243, No Iterations 4
bounding nuTilda, min: -0.000321047 max: 0.0538238 average: 0.00524423
ExecutionTime = 344.597 s  ClockTime = 344 s

Time = 103s

smoothSolver:  Solving for Ux, Initial residual = 0.00401857, Final residual = 0.000370835, No Iterations 2
smoothSolver:  Solving for Uy, Initial residual = 0.0331264, Final residual = 0.00319549, No Iterations 2
smoothSolver:  Solving for Uz, Initial residual = 0.0195196, Final residual = 0.000428606, No Iterations 4
GAMG:  Solving for p, Initial residual = 3.87209e-05, Final residual = 2.01863e-07, No Iterations 3
time step continuity errors : sum local = 0.00208899, global = 0.000107723, cumulative = -0.0061383
smoothSolver:  Solving for nuTilda, Initial residual = 0.0072535, Final residual = 0.000132829, No Iterations 4
bounding nuTilda, min: -0.000325064 max: 0.0544888 average: 0.0053033
ExecutionTime = 347.633 s  ClockTime = 347 s

Time = 104s

[...]
smoothSolver:  Solving for Uy, Initial residual = 2.11554e-05, Final residual = 8.3017e-07, No Iterations 4
smoothSolver:  Solving for Uz, Initial residual = 1.8658e-05, Final residual = 7.14372e-07, No Iterations 4
GAMG:  Solving for p, Initial residual = 4.4382e-07, Final residual = 3.54116e-08, No Iterations 1
time step continuity errors : sum local = 0.000145063, global = -6.31779e-05, cumulative = -0.0395213
smoothSolver:  Solving for nuTilda, Initial residual = 0.000172152, Final residual = 1.56509e-05, No Iterations 2
bounding nuTilda, min: -0.000201392 max: 0.111553 average: 0.0121524
ExecutionTime = 1195.61 s  ClockTime = 1195 s

Time = 476s

smoothSolver:  Solving for Ux, Initial residual = 6.07707e-06, Final residual = 2.1661e-07, No Iterations 4
smoothSolver:  Solving for Uy, Initial residual = 2.10374e-05, Final residual = 8.25524e-07, No Iterations 4
smoothSolver:  Solving for Uz, Initial residual = 1.85619e-05, Final residual = 7.11979e-07, No Iterations 4
GAMG:  Solving for p, Initial residual = 4.44645e-07, Final residual = 3.54228e-08, No Iterations 1
time step continuity errors : sum local = 0.000144735, global = -6.31111e-05, cumulative = -0.0395844
smoothSolver:  Solving for nuTilda, Initial residual = 0.000171817, Final residual = 1.56276e-05, No Iterations 2
bounding nuTilda, min: -0.000201548 max: 0.111648 average: 0.012154
ExecutionTime = 1198.01 s  ClockTime = 1198 s

Time = 477s

smoothSolver:  Solving for Ux, Initial residual = 6.06035e-06, Final residual = 2.16199e-07, No Iterations 4
smoothSolver:  Solving for Uy, Initial residual = 2.09272e-05, Final residual = 8.20126e-07, No Iterations 4
smoothSolver:  Solving for Uz, Initial residual = 1.84786e-05, Final residual = 7.09878e-07, No Iterations 4
GAMG:  Solving for p, Initial residual = 4.45472e-07, Final residual = 3.54497e-08, No Iterations 1
time step continuity errors : sum local = 0.000144472, global = -6.30381e-05, cumulative = -0.0396474
smoothSolver:  Solving for nuTilda, Initial residual = 0.000171437, Final residual = 1.56039e-05, No Iterations 2
bounding nuTilda, min: -0.00021978 max: 0.111742 average: 0.0121556
ExecutionTime = 1200.71 s  ClockTime = 1200 s

Time = 478s

smoothSolver:  Solving for Ux, Initial residual = 6.04587e-06, Final residual = 2.1584e-07, No Iterations 4
smoothSolver:  Solving for Uy, Initial residual = 2.08304e-05, Final residual = 8.15341e-07, No Iterations 4
smoothSolver:  Solving for Uz, Initial residual = 1.83967e-05, Final residual = 7.07504e-07, No Iterations 4
GAMG:  Solving for p, Initial residual = 4.46351e-07, Final residual = 3.54603e-08, No Iterations 1
time step continuity errors : sum local = 0.000144143, global = -6.29552e-05, cumulative = -0.0397104
smoothSolver:  Solving for nuTilda, Initial residual = 0.000171041, Final residual = 1.55809e-05, No Iterations 2
bounding nuTilda, min: -0.000193923 max: 0.111837 average: 0.0121572
ExecutionTime = 1203.02 s  ClockTime = 1203 s

Time = 479s

smoothSolver:  Solving for Ux, Initial residual = 6.03255e-06, Final residual = 2.15595e-07, No Iterations 4
smoothSolver:  Solving for Uy, Initial residual = 2.07424e-05, Final residual = 8.11991e-07, No Iterations 4
smoothSolver:  Solving for Uz, Initial residual = 1.83149e-05, Final residual = 7.05598e-07, No Iterations 4
GAMG:  Solving for p, Initial residual = 4.47292e-07, Final residual = 3.54796e-08, No Iterations 1
time step continuity errors : sum local = 0.000143849, global = -6.28695e-05, cumulative = -0.0397733
smoothSolver:  Solving for nuTilda, Initial residual = 0.000170686, Final residual = 1.5558e-05, No Iterations 2
bounding nuTilda, min: -0.000218079 max: 0.11193 average: 0.0121587
ExecutionTime = 1205.25 s  ClockTime = 1205 s

Time = 480s

smoothSolver:  Solving for Ux, Initial residual = 6.01982e-06, Final residual = 2.15513e-07, No Iterations 4
smoothSolver:  Solving for Uy, Initial residual = 2.06672e-05, Final residual = 8.09746e-07, No Iterations 4
smoothSolver:  Solving for Uz, Initial residual = 1.82376e-05, Final residual = 7.03996e-07, No Iterations 4
GAMG:  Solving for p, Initial residual = 4.48165e-07, Final residual = 3.54984e-08, No Iterations 1
time step continuity errors : sum local = 0.000143554, global = -6.26859e-05, cumulative = -0.039836
smoothSolver:  Solving for nuTilda, Initial residual = 0.000170302, Final residual = 1.55358e-05, No Iterations 2
bounding nuTilda, min: -0.000258334 max: 0.112024 average: 0.0121603
ExecutionTime = 1207.8 s  ClockTime = 1208 s

Time = 481s

smoothSolver:  Solving for Ux, Initial residual = 6.00902e-06, Final residual = 2.1558e-07, No Iterations 4
smoothSolver:  Solving for Uy, Initial residual = 2.05934e-05, Final residual = 8.08426e-07, No Iterations 4
smoothSolver:  Solving for Uz, Initial residual = 1.81606e-05, Final residual = 7.0297e-07, No Iterations 4
GAMG:  Solving for p, Initial residual = 4.49006e-07, Final residual = 3.5517e-08, No Iterations 1
time step continuity errors : sum local = 0.000143258, global = -6.24611e-05, cumulative = -0.0398984
smoothSolver:  Solving for nuTilda, Initial residual = 0.000169997, Final residual = 1.55139e-05, No Iterations 2
bounding nuTilda, min: -0.000233675 max: 0.112117 average: 0.0121619
ExecutionTime = 1210.14 s  ClockTime = 1210 s

Time = 482s

smoothSolver:  Solving for Ux, Initial residual = 5.99974e-06, Final residual = 2.15788e-07, No Iterations 4
smoothSolver:  Solving for Uy, Initial residual = 2.0532e-05, Final residual = 8.08083e-07, No Iterations 4
smoothSolver:  Solving for Uz, Initial residual = 1.80902e-05, Final residual = 7.02401e-07, No Iterations 4
GAMG:  Solving for p, Initial residual = 4.49873e-07, Final residual = 3.55389e-08, No Iterations 1
time step continuity errors : sum local = 0.000142977, global = -6.22092e-05, cumulative = -0.0399606
smoothSolver:  Solving for nuTilda, Initial residual = 0.000169654, Final residual = 1.54921e-05, No Iterations 2
bounding nuTilda, min: -0.000189683 max: 0.112209 average: 0.0121635
ExecutionTime = 1212.59 s  ClockTime = 1212 s

Time = 483s

smoothSolver:  Solving for Ux, Initial residual = 5.99345e-06, Final residual = 2.16123e-07, No Iterations 4
smoothSolver:  Solving for Uy, Initial residual = 2.048e-05, Final residual = 8.08074e-07, No Iterations 4
smoothSolver:  Solving for Uz, Initial residual = 1.80339e-05, Final residual = 7.0172e-07, No Iterations 4
GAMG:  Solving for p, Initial residual = 4.50853e-07, Final residual = 3.55699e-08, No Iterations 1
time step continuity errors : sum local = 0.000142731, global = -6.19802e-05, cumulative = -0.0400226
smoothSolver:  Solving for nuTilda, Initial residual = 0.00016937, Final residual = 1.54709e-05, No Iterations 2
bounding nuTilda, min: -0.000235982 max: 0.112301 average: 0.012165
ExecutionTime = 1214.89 s  ClockTime = 1215 s

Time = 484s

smoothSolver:  Solving for Ux, Initial residual = 5.98832e-06, Final residual = 2.16535e-07, No Iterations 4
smoothSolver:  Solving for Uy, Initial residual = 2.04406e-05, Final residual = 8.08069e-07, No Iterations 4
smoothSolver:  Solving for Uz, Initial residual = 1.79762e-05, Final residual = 7.01025e-07, No Iterations 4
GAMG:  Solving for p, Initial residual = 4.51908e-07, Final residual = 3.56094e-08, No Iterations 1
time step continuity errors : sum local = 0.000142519, global = -6.1771e-05, cumulative = -0.0400844
smoothSolver:  Solving for nuTilda, Initial residual = 0.000168963, Final residual = 1.54497e-05, No Iterations 2
bounding nuTilda, min: -0.000235474 max: 0.112393 average: 0.0121666
ExecutionTime = 1217.01 s  ClockTime = 1217 s

Time = 485s

smoothSolver:  Solving for Ux, Initial residual = 5.98396e-06, Final residual = 2.1706e-07, No Iterations 4
smoothSolver:  Solving for Uy, Initial residual = 2.0405e-05, Final residual = 8.08113e-07, No Iterations 4
smoothSolver:  Solving for Uz, Initial residual = 1.79104e-05, Final residual = 7.00469e-07, No Iterations 4
GAMG:  Solving for p, Initial residual = 4.529e-07, Final residual = 3.56619e-08, No Iterations 1
time step continuity errors : sum local = 0.000142359, global = -6.16304e-05, cumulative = -0.040146
smoothSolver:  Solving for nuTilda, Initial residual = 0.000168629, Final residual = 1.5429e-05, No Iterations 2
bounding nuTilda, min: -0.000241272 max: 0.112484 average: 0.0121682
ExecutionTime = 1219.26 s  ClockTime = 1219 s

Time = 486s

smoothSolver:  Solving for Ux, Initial residual = 5.98183e-06, Final residual = 2.17584e-07, No Iterations 4
smoothSolver:  Solving for Uy, Initial residual = 2.03898e-05, Final residual = 8.08548e-07, No Iterations 4
smoothSolver:  Solving for Uz, Initial residual = 1.78664e-05, Final residual = 6.99255e-07, No Iterations 4
GAMG:  Solving for p, Initial residual = 4.53943e-07, Final residual = 3.57437e-08, No Iterations 1
time step continuity errors : sum local = 0.000142315, global = -6.16105e-05, cumulative = -0.0402076
smoothSolver:  Solving for nuTilda, Initial residual = 0.000168362, Final residual = 1.54089e-05, No Iterations 2
bounding nuTilda, min: -0.000259841 max: 0.112575 average: 0.0121698
ExecutionTime = 1221.48 s  ClockTime = 1221 s

Time = 487s

smoothSolver:  Solving for Ux, Initial residual = 5.97907e-06, Final residual = 2.18159e-07, No Iterations 4
smoothSolver:  Solving for Uy, Initial residual = 2.03789e-05, Final residual = 8.09361e-07, No Iterations 4
smoothSolver:  Solving for Uz, Initial residual = 1.78096e-05, Final residual = 6.9847e-07, No Iterations 4
GAMG:  Solving for p, Initial residual = 4.55035e-07, Final residual = 3.58294e-08, No Iterations 1
time step continuity errors : sum local = 0.000142285, global = -6.16752e-05, cumulative = -0.0402693
smoothSolver:  Solving for nuTilda, Initial residual = 0.000168052, Final residual = 1.53885e-05, No Iterations 2
bounding nuTilda, min: -0.000198473 max: 0.112666 average: 0.0121713
ExecutionTime = 1223.9 s  ClockTime = 1224 s

Time = 488s

smoothSolver:  Solving for Ux, Initial residual = 5.97862e-06, Final residual = 2.18686e-07, No Iterations 4
smoothSolver:  Solving for Uy, Initial residual = 2.0385e-05, Final residual = 8.10966e-07, No Iterations 4
smoothSolver:  Solving for Uz, Initial residual = 1.7775e-05, Final residual = 6.9748e-07, No Iterations 4
GAMG:  Solving for p, Initial residual = 4.5616e-07, Final residual = 3.5926e-08, No Iterations 1
time step continuity errors : sum local = 0.000142298, global = -6.18086e-05, cumulative = -0.0403311
smoothSolver:  Solving for nuTilda, Initial residual = 0.000167684, Final residual = 1.53687e-05, No Iterations 2
bounding nuTilda, min: -0.00025353 max: 0.112756 average: 0.0121729
ExecutionTime = 1226.81 s  ClockTime = 1227 s

Time = 489s

smoothSolver:  Solving for Ux, Initial residual = 5.97921e-06, Final residual = 2.19298e-07, No Iterations 4
smoothSolver:  Solving for Uy, Initial residual = 2.04017e-05, Final residual = 8.12708e-07, No Iterations 4
smoothSolver:  Solving for Uz, Initial residual = 1.77472e-05, Final residual = 6.96867e-07, No Iterations 4
GAMG:  Solving for p, Initial residual = 4.57272e-07, Final residual = 3.60385e-08, No Iterations 1
time step continuity errors : sum local = 0.000142372, global = -6.20161e-05, cumulative = -0.0403931
smoothSolver:  Solving for nuTilda, Initial residual = 0.000167482, Final residual = 1.53491e-05, No Iterations 2
bounding nuTilda, min: -0.000215845 max: 0.112846 average: 0.0121745
ExecutionTime = 1229.09 s  ClockTime = 1229 s

Time = 490s

smoothSolver:  Solving for Ux, Initial residual = 5.9779e-06, Final residual = 2.19939e-07, No Iterations 4
smoothSolver:  Solving for Uy, Initial residual = 2.04295e-05, Final residual = 8.15071e-07, No Iterations 4
smoothSolver:  Solving for Uz, Initial residual = 1.77135e-05, Final residual = 6.96768e-07, No Iterations 4
GAMG:  Solving for p, Initial residual = 4.58333e-07, Final residual = 3.6158e-08, No Iterations 1
time step continuity errors : sum local = 0.000142471, global = -6.23271e-05, cumulative = -0.0404554
smoothSolver:  Solving for nuTilda, Initial residual = 0.000167171, Final residual = 1.53296e-05, No Iterations 2
bounding nuTilda, min: -0.000240984 max: 0.112935 average: 0.012176
ExecutionTime = 1231.5 s  ClockTime = 1231 s

Time = 491s

smoothSolver:  Solving for Ux, Initial residual = 5.97768e-06, Final residual = 2.20542e-07, No Iterations 4
smoothSolver:  Solving for Uy, Initial residual = 2.0478e-05, Final residual = 8.18084e-07, No Iterations 4
smoothSolver:  Solving for Uz, Initial residual = 1.76985e-05, Final residual = 6.96636e-07, No Iterations 4
GAMG:  Solving for p, Initial residual = 4.5933e-07, Final residual = 3.6289e-08, No Iterations 1
time step continuity errors : sum local = 0.000142614, global = -6.27792e-05, cumulative = -0.0405182
smoothSolver:  Solving for nuTilda, Initial residual = 0.000166859, Final residual = 1.53103e-05, No Iterations 2
bounding nuTilda, min: -0.000185675 max: 0.113024 average: 0.0121776
ExecutionTime = 1233.78 s  ClockTime = 1234 s

Time = 492s

smoothSolver:  Solving for Ux, Initial residual = 5.97679e-06, Final residual = 2.21164e-07, No Iterations 4
smoothSolver:  Solving for Uy, Initial residual = 2.05307e-05, Final residual = 8.21664e-07, No Iterations 4
smoothSolver:  Solving for Uz, Initial residual = 1.76793e-05, Final residual = 6.97053e-07, No Iterations 4
GAMG:  Solving for p, Initial residual = 4.60357e-07, Final residual = 3.642e-08, No Iterations 1
time step continuity errors : sum local = 0.000142754, global = -6.32902e-05, cumulative = -0.0405815
smoothSolver:  Solving for nuTilda, Initial residual = 0.000166564, Final residual = 1.52913e-05, No Iterations 2
bounding nuTilda, min: -0.000226841 max: 0.113113 average: 0.0121792
ExecutionTime = 1236.08 s  ClockTime = 1236 s

Time = 493s

smoothSolver:  Solving for Ux, Initial residual = 5.97625e-06, Final residual = 2.21719e-07, No Iterations 4
smoothSolver:  Solving for Uy, Initial residual = 2.05909e-05, Final residual = 8.26123e-07, No Iterations 4
smoothSolver:  Solving for Uz, Initial residual = 1.76785e-05, Final residual = 6.97343e-07, No Iterations 4
GAMG:  Solving for p, Initial residual = 4.61406e-07, Final residual = 3.65555e-08, No Iterations 1
time step continuity errors : sum local = 0.000142908, global = -6.38226e-05, cumulative = -0.0406453
smoothSolver:  Solving for nuTilda, Initial residual = 0.000166347, Final residual = 1.52726e-05, No Iterations 2
bounding nuTilda, min: -0.000203949 max: 0.113201 average: 0.0121807
ExecutionTime = 1238.27 s  ClockTime = 1238 s

Time = 494s

smoothSolver:  Solving for Ux, Initial residual = 5.97714e-06, Final residual = 2.22266e-07, No Iterations 4
smoothSolver:  Solving for Uy, Initial residual = 2.06459e-05, Final residual = 8.30754e-07, No Iterations 4
smoothSolver:  Solving for Uz, Initial residual = 1.76688e-05, Final residual = 6.98046e-07, No Iterations 4
GAMG:  Solving for p, Initial residual = 4.6252e-07, Final residual = 3.66934e-08, No Iterations 1
time step continuity errors : sum local = 0.00014307, global = -6.43774e-05, cumulative = -0.0407097
smoothSolver:  Solving for nuTilda, Initial residual = 0.000166056, Final residual = 1.52541e-05, No Iterations 2
bounding nuTilda, min: -0.000208111 max: 0.113289 average: 0.0121823
ExecutionTime = 1240.46 s  ClockTime = 1240 s

Time = 495s

smoothSolver:  Solving for Ux, Initial residual = 5.97741e-06, Final residual = 2.2285e-07, No Iterations 4
smoothSolver:  Solving for Uy, Initial residual = 2.06861e-05, Final residual = 8.34991e-07, No Iterations 4
smoothSolver:  Solving for Uz, Initial residual = 1.76478e-05, Final residual = 6.99311e-07, No Iterations 4
GAMG:  Solving for p, Initial residual = 4.63639e-07, Final residual = 3.68386e-08, No Iterations 1
time step continuity errors : sum local = 0.000143258, global = -6.49266e-05, cumulative = -0.0407746
smoothSolver:  Solving for nuTilda, Initial residual = 0.000165833, Final residual = 1.52357e-05, No Iterations 2
bounding nuTilda, min: -0.000175091 max: 0.113376 average: 0.0121839
ExecutionTime = 1242.91 s  ClockTime = 1243 s

Time = 496s

smoothSolver:  Solving for Ux, Initial residual = 5.98025e-06, Final residual = 2.23372e-07, No Iterations 4
smoothSolver:  Solving for Uy, Initial residual = 2.07215e-05, Final residual = 8.39358e-07, No Iterations 4
smoothSolver:  Solving for Uz, Initial residual = 1.76359e-05, Final residual = 7.00308e-07, No Iterations 4
GAMG:  Solving for p, Initial residual = 4.64846e-07, Final residual = 3.69879e-08, No Iterations 1
time step continuity errors : sum local = 0.00014346, global = -6.54327e-05, cumulative = -0.0408401
smoothSolver:  Solving for nuTilda, Initial residual = 0.000165511, Final residual = 1.52178e-05, No Iterations 2
bounding nuTilda, min: -0.000186092 max: 0.113464 average: 0.0121854
ExecutionTime = 1245.05 s  ClockTime = 1245 s

Time = 497s

smoothSolver:  Solving for Ux, Initial residual = 5.98152e-06, Final residual = 2.23908e-07, No Iterations 4
smoothSolver:  Solving for Uy, Initial residual = 2.07367e-05, Final residual = 8.43352e-07, No Iterations 4
smoothSolver:  Solving for Uz, Initial residual = 1.75955e-05, Final residual = 7.01295e-07, No Iterations 4
GAMG:  Solving for p, Initial residual = 4.66032e-07, Final residual = 3.71057e-08, No Iterations 1
time step continuity errors : sum local = 0.000143536, global = -6.5956e-05, cumulative = -0.040906
smoothSolver:  Solving for nuTilda, Initial residual = 0.000165263, Final residual = 1.51996e-05, No Iterations 2
bounding nuTilda, min: -0.000178503 max: 0.11355 average: 0.012187
ExecutionTime = 1247.25 s  ClockTime = 1247 s

Time = 498s

smoothSolver:  Solving for Ux, Initial residual = 5.98324e-06, Final residual = 2.243e-07, No Iterations 4
smoothSolver:  Solving for Uy, Initial residual = 2.07455e-05, Final residual = 8.47188e-07, No Iterations 4
smoothSolver:  Solving for Uz, Initial residual = 1.75682e-05, Final residual = 7.01842e-07, No Iterations 4
GAMG:  Solving for p, Initial residual = 4.67034e-07, Final residual = 3.7192e-08, No Iterations 1
time step continuity errors : sum local = 0.000143489, global = -6.64511e-05, cumulative = -0.0409725
smoothSolver:  Solving for nuTilda, Initial residual = 0.000165052, Final residual = 1.51821e-05, No Iterations 2
bounding nuTilda, min: -0.00016599 max: 0.113637 average: 0.0121886
ExecutionTime = 1249.53 s  ClockTime = 1249 s

Time = 499s

smoothSolver:  Solving for Ux, Initial residual = 5.98622e-06, Final residual = 2.24765e-07, No Iterations 4
smoothSolver:  Solving for Uy, Initial residual = 2.07302e-05, Final residual = 8.50181e-07, No Iterations 4
smoothSolver:  Solving for Uz, Initial residual = 1.75188e-05, Final residual = 7.02574e-07, No Iterations 4
GAMG:  Solving for p, Initial residual = 4.67908e-07, Final residual = 3.72708e-08, No Iterations 1
time step continuity errors : sum local = 0.000143411, global = -6.69138e-05, cumulative = -0.0410394
smoothSolver:  Solving for nuTilda, Initial residual = 0.000164787, Final residual = 1.51648e-05, No Iterations 2
bounding nuTilda, min: -0.00016549 max: 0.113723 average: 0.0121901
ExecutionTime = 1251.98 s  ClockTime = 1252 s

Time = 500s

smoothSolver:  Solving for Ux, Initial residual = 5.98853e-06, Final residual = 2.25191e-07, No Iterations 4
smoothSolver:  Solving for Uy, Initial residual = 2.06973e-05, Final residual = 8.52556e-07, No Iterations 4
smoothSolver:  Solving for Uz, Initial residual = 1.74525e-05, Final residual = 7.03321e-07, No Iterations 4
GAMG:  Solving for p, Initial residual = 4.68766e-07, Final residual = 3.73533e-08, No Iterations 1
time step continuity errors : sum local = 0.000143346, global = -6.7295e-05, cumulative = -0.0411067
smoothSolver:  Solving for nuTilda, Initial residual = 0.000164517, Final residual = 1.51474e-05, No Iterations 2
bounding nuTilda, min: -0.000174571 max: 0.113809 average: 0.0121917
ExecutionTime = 1254.57 s  ClockTime = 1254 s

End

Finalising parallel run
