/*---------------------------------------------------------------------------*\
  =========                 |
  \\      /  F ield         | OpenFOAM: The Open Source CFD Toolbox
   \\    /   O peration     | Website:  https://openfoam.org
    \\  /    A nd           | Version:  11
     \\/     M anipulation  |
\*---------------------------------------------------------------------------*/
Build  : 11-d496a603da00
Exec   : foamRun -solver incompressibleFluid -parallel
Date   : Oct 18 2023
Time   : 13:01:50
Host   : "Laptop"
PID    : 354203
I/O    : uncollated
Case   : /home/tiago/OpenFOAM/tiago-11/run/wind_tunnel
nProcs : 4
Slaves : 
3
(
"Laptop.354204"
"Laptop.354206"
"Laptop.354210"
)

Pstream initialised with:
    floatTransfer      : false
    nProcsSimpleSum    : 0
    commsType          : nonBlocking
    polling iterations : 0
sigFpe : Enabling floating point exception trapping (FOAM_SIGFPE).
fileModificationChecking : Monitoring run-time modified files using timeStampMaster (fileModificationSkew 10)
allowSystemOperations : Allowing user-supplied system call operations

// * * * * * * * * * * * * * * * * * * * * * * * * * * * * * * * * * * * * * //
Create time

Create mesh for time = 0

Selecting solver incompressibleFluid
Selecting viscosity model constant
Selecting turbulence model type RAS
Selecting RAS turbulence model SpalartAllmaras
Selecting patchDistMethod meshWave
RAS
{
    model           SpalartAllmaras;
    turbulence      on;
    printCoeffs     on;
    sigmaNut        0.66666;
    kappa           0.41;
    Cb1             0.1355;
    Cb2             0.622;
    Cw2             0.3;
    Cw3             2;
    Cv1             7.1;
    Cs              0.3;
}

No MRF models present


SIMPLE: Convergence criteria found
        p: tolerance 1e-05
        U: tolerance 1e-05
        nuTilda: tolerance 1e-05


SIMPLE: Operating solver in steady-state mode with 1 outer corrector
SIMPLE: Operating solver in SIMPLE mode



Starting time loop

Time = 1s

smoothSolver:  Solving for Ux, Initial residual = 1, Final residual = 2.55748e-05, No Iterations 2
smoothSolver:  Solving for Uy, Initial residual = 1, Final residual = 0.0343801, No Iterations 2
smoothSolver:  Solving for Uz, Initial residual = 1, Final residual = 0.0351388, No Iterations 2
GAMG:  Solving for p, Initial residual = 1, Final residual = 0.008202, No Iterations 13
time step continuity errors : sum local = 0.00474482, global = 0.00122619, cumulative = 0.00122619
smoothSolver:  Solving for nuTilda, Initial residual = 1, Final residual = 0.0259696, No Iterations 4
bounding nuTilda, min: -0.00104297 max: 0.0374 average: 0.000222566
ExecutionTime = 4.34893 s  ClockTime = 5 s

Time = 2s

smoothSolver:  Solving for Ux, Initial residual = 0.0925927, Final residual = 0.00566372, No Iterations 4
smoothSolver:  Solving for Uy, Initial residual = 0.244777, Final residual = 0.0137755, No Iterations 4
smoothSolver:  Solving for Uz, Initial residual = 0.254036, Final residual = 0.0126527, No Iterations 4
GAMG:  Solving for p, Initial residual = 0.0214389, Final residual = 0.000198202, No Iterations 71
time step continuity errors : sum local = 0.00957165, global = -4.85027e-05, cumulative = 0.00117769
smoothSolver:  Solving for nuTilda, Initial residual = 0.155668, Final residual = 0.00441751, No Iterations 4
bounding nuTilda, min: -0.00378168 max: 0.0374 average: 0.000311959
ExecutionTime = 9.53118 s  ClockTime = 10 s

Time = 3s

smoothSolver:  Solving for Ux, Initial residual = 0.276705, Final residual = 0.0242553, No Iterations 4
smoothSolver:  Solving for Uy, Initial residual = 0.333835, Final residual = 0.0233555, No Iterations 4
smoothSolver:  Solving for Uz, Initial residual = 0.295918, Final residual = 0.0223243, No Iterations 4
GAMG:  Solving for p, Initial residual = 7.07594e-05, Final residual = 7.03611e-07, No Iterations 6
time step continuity errors : sum local = 0.0198453, global = 0.00036443, cumulative = 0.00154212
smoothSolver:  Solving for nuTilda, Initial residual = 0.0919837, Final residual = 0.0034541, No Iterations 4
bounding nuTilda, min: -0.00262346 max: 0.0374 average: 0.000389178
ExecutionTime = 11.225 s  ClockTime = 11 s

Time = 4s

smoothSolver:  Solving for Ux, Initial residual = 0.242411, Final residual = 0.0222412, No Iterations 4
smoothSolver:  Solving for Uy, Initial residual = 0.205716, Final residual = 0.0179337, No Iterations 4
smoothSolver:  Solving for Uz, Initial residual = 0.212066, Final residual = 0.0180193, No Iterations 4
GAMG:  Solving for p, Initial residual = 5.3556e-05, Final residual = 4.7105e-07, No Iterations 15
time step continuity errors : sum local = 0.0199933, global = -0.000487103, cumulative = 0.00105502
smoothSolver:  Solving for nuTilda, Initial residual = 0.0654516, Final residual = 0.00266974, No Iterations 4
bounding nuTilda, min: -0.0038646 max: 0.0375945 average: 0.000467713
ExecutionTime = 13.8192 s  ClockTime = 14 s

Time = 5s

smoothSolver:  Solving for Ux, Initial residual = 0.0772404, Final residual = 0.00663579, No Iterations 4
smoothSolver:  Solving for Uy, Initial residual = 0.159641, Final residual = 0.0116506, No Iterations 4
smoothSolver:  Solving for Uz, Initial residual = 0.157469, Final residual = 0.0132396, No Iterations 4
GAMG:  Solving for p, Initial residual = 0.000162696, Final residual = 1.47366e-06, No Iterations 13
time step continuity errors : sum local = 0.0211529, global = -0.00099067, cumulative = 6.43481e-05
smoothSolver:  Solving for nuTilda, Initial residual = 0.0522256, Final residual = 0.00219361, No Iterations 4
bounding nuTilda, min: -0.00398769 max: 0.0377682 average: 0.000547058
ExecutionTime = 15.6353 s  ClockTime = 16 s

Time = 6s

smoothSolver:  Solving for Ux, Initial residual = 0.132314, Final residual = 0.00871417, No Iterations 4
smoothSolver:  Solving for Uy, Initial residual = 0.148691, Final residual = 0.00919836, No Iterations 4
smoothSolver:  Solving for Uz, Initial residual = 0.142311, Final residual = 0.00870995, No Iterations 4
GAMG:  Solving for p, Initial residual = 0.00016113, Final residual = 1.12415e-06, No Iterations 7
time step continuity errors : sum local = 0.0151076, global = 0.000849973, cumulative = 0.000914321
smoothSolver:  Solving for nuTilda, Initial residual = 0.0441306, Final residual = 0.00182611, No Iterations 4
bounding nuTilda, min: -0.00609832 max: 0.0377353 average: 0.000625721
ExecutionTime = 17.2184 s  ClockTime = 17 s

Time = 7s

smoothSolver:  Solving for Ux, Initial residual = 0.145137, Final residual = 0.0127355, No Iterations 4
smoothSolver:  Solving for Uy, Initial residual = 0.152813, Final residual = 0.0102947, No Iterations 4
smoothSolver:  Solving for Uz, Initial residual = 0.151933, Final residual = 0.0106678, No Iterations 4
GAMG:  Solving for p, Initial residual = 0.000112588, Final residual = 8.36418e-07, No Iterations 9
time step continuity errors : sum local = 0.0156781, global = 0.000415826, cumulative = 0.00133015
smoothSolver:  Solving for nuTilda, Initial residual = 0.0379416, Final residual = 0.0015464, No Iterations 4
bounding nuTilda, min: -0.00579555 max: 0.0375936 average: 0.000704514
ExecutionTime = 19.0079 s  ClockTime = 19 s

Time = 8s

smoothSolver:  Solving for Ux, Initial residual = 0.0723995, Final residual = 0.00571286, No Iterations 4
smoothSolver:  Solving for Uy, Initial residual = 0.126746, Final residual = 0.00839417, No Iterations 4
smoothSolver:  Solving for Uz, Initial residual = 0.133014, Final residual = 0.00966306, No Iterations 4
GAMG:  Solving for p, Initial residual = 0.000200922, Final residual = 1.7176e-06, No Iterations 10
time step continuity errors : sum local = 0.0163298, global = 0.00147316, cumulative = 0.0028033
smoothSolver:  Solving for nuTilda, Initial residual = 0.0324635, Final residual = 0.0013386, No Iterations 4
bounding nuTilda, min: -0.00590134 max: 0.0375315 average: 0.000781313
ExecutionTime = 21.5081 s  ClockTime = 22 s

Time = 9s

smoothSolver:  Solving for Ux, Initial residual = 0.091703, Final residual = 0.00492753, No Iterations 4
smoothSolver:  Solving for Uy, Initial residual = 0.113883, Final residual = 0.00590883, No Iterations 4
smoothSolver:  Solving for Uz, Initial residual = 0.117706, Final residual = 0.00617425, No Iterations 4
GAMG:  Solving for p, Initial residual = 0.000343953, Final residual = 2.32683e-06, No Iterations 7
time step continuity errors : sum local = 0.0124543, global = -0.000815402, cumulative = 0.0019879
smoothSolver:  Solving for nuTilda, Initial residual = 0.0285868, Final residual = 0.00117161, No Iterations 4
bounding nuTilda, min: -0.00606383 max: 0.0374768 average: 0.000855948
ExecutionTime = 23.7869 s  ClockTime = 24 s

Time = 10s

smoothSolver:  Solving for Ux, Initial residual = 0.0814611, Final residual = 0.0062973, No Iterations 4
smoothSolver:  Solving for Uy, Initial residual = 0.116274, Final residual = 0.00638265, No Iterations 4
smoothSolver:  Solving for Uz, Initial residual = 0.116503, Final residual = 0.0067742, No Iterations 4
GAMG:  Solving for p, Initial residual = 0.000114467, Final residual = 1.10586e-06, No Iterations 7
time step continuity errors : sum local = 0.0169173, global = -0.000455051, cumulative = 0.00153285
smoothSolver:  Solving for nuTilda, Initial residual = 0.0254493, Final residual = 0.00104361, No Iterations 4
bounding nuTilda, min: -0.00617566 max: 0.0375238 average: 0.000928634
ExecutionTime = 25.8215 s  ClockTime = 26 s

Time = 11s

smoothSolver:  Solving for Ux, Initial residual = 0.0519226, Final residual = 0.00337621, No Iterations 4
smoothSolver:  Solving for Uy, Initial residual = 0.10479, Final residual = 0.0056595, No Iterations 4
smoothSolver:  Solving for Uz, Initial residual = 0.104926, Final residual = 0.00632023, No Iterations 4
GAMG:  Solving for p, Initial residual = 0.000183085, Final residual = 1.8302e-06, No Iterations 8
time step continuity errors : sum local = 0.0167631, global = -0.00157386, cumulative = -4.1013e-05
smoothSolver:  Solving for nuTilda, Initial residual = 0.0232004, Final residual = 0.000947283, No Iterations 4
bounding nuTilda, min: -0.00625159 max: 0.0375435 average: 0.000999477
ExecutionTime = 27.4861 s  ClockTime = 28 s

Time = 12s

smoothSolver:  Solving for Ux, Initial residual = 0.0537674, Final residual = 0.002276, No Iterations 4
smoothSolver:  Solving for Uy, Initial residual = 0.0977012, Final residual = 0.0041478, No Iterations 4
smoothSolver:  Solving for Uz, Initial residual = 0.0940935, Final residual = 0.00419857, No Iterations 4
GAMG:  Solving for p, Initial residual = 0.0103014, Final residual = 0.000101526, No Iterations 5
time step continuity errors : sum local = 0.0159382, global = 0.00108143, cumulative = 0.00104042
smoothSolver:  Solving for nuTilda, Initial residual = 0.0214601, Final residual = 0.000869846, No Iterations 4
bounding nuTilda, min: -0.00632833 max: 0.0375514 average: 0.00106859
ExecutionTime = 28.9708 s  ClockTime = 29 s

Time = 13s

smoothSolver:  Solving for Ux, Initial residual = 0.0525195, Final residual = 0.00341616, No Iterations 4
smoothSolver:  Solving for Uy, Initial residual = 0.0944941, Final residual = 0.00405854, No Iterations 4
smoothSolver:  Solving for Uz, Initial residual = 0.0912427, Final residual = 0.00412188, No Iterations 4
GAMG:  Solving for p, Initial residual = 0.000520474, Final residual = 4.52661e-06, No Iterations 7
time step continuity errors : sum local = 0.0136188, global = 0.00107052, cumulative = 0.00211094
smoothSolver:  Solving for nuTilda, Initial residual = 0.020046, Final residual = 0.000802017, No Iterations 4
bounding nuTilda, min: -0.00635178 max: 0.0375354 average: 0.00113758
ExecutionTime = 30.5027 s  ClockTime = 31 s

Time = 14s

smoothSolver:  Solving for Ux, Initial residual = 0.0454577, Final residual = 0.00229159, No Iterations 4
smoothSolver:  Solving for Uy, Initial residual = 0.0958982, Final residual = 0.00428516, No Iterations 4
smoothSolver:  Solving for Uz, Initial residual = 0.096109, Final residual = 0.00471936, No Iterations 4
GAMG:  Solving for p, Initial residual = 0.000958644, Final residual = 7.12535e-06, No Iterations 7
time step continuity errors : sum local = 0.0111143, global = 0.000916748, cumulative = 0.00302769
smoothSolver:  Solving for nuTilda, Initial residual = 0.0187501, Final residual = 0.000742937, No Iterations 4
bounding nuTilda, min: -0.00636588 max: 0.037507 average: 0.00120398
ExecutionTime = 32.0257 s  ClockTime = 32 s

Time = 15s

smoothSolver:  Solving for Ux, Initial residual = 0.0428177, Final residual = 0.001348, No Iterations 4
smoothSolver:  Solving for Uy, Initial residual = 0.101878, Final residual = 0.00360453, No Iterations 4
smoothSolver:  Solving for Uz, Initial residual = 0.101224, Final residual = 0.00382681, No Iterations 4
GAMG:  Solving for p, Initial residual = 0.00361625, Final residual = 3.12621e-05, No Iterations 5
time step continuity errors : sum local = 0.0130248, global = -0.000707538, cumulative = 0.00232015
smoothSolver:  Solving for nuTilda, Initial residual = 0.017554, Final residual = 0.000691197, No Iterations 4
bounding nuTilda, min: -0.0063436 max: 0.0375159 average: 0.00126791
ExecutionTime = 33.4638 s  ClockTime = 34 s

Time = 16s

smoothSolver:  Solving for Ux, Initial residual = 0.0401716, Final residual = 0.00198778, No Iterations 4
smoothSolver:  Solving for Uy, Initial residual = 0.103619, Final residual = 0.00337666, No Iterations 4
smoothSolver:  Solving for Uz, Initial residual = 0.0994179, Final residual = 0.00333109, No Iterations 4
GAMG:  Solving for p, Initial residual = 0.000754348, Final residual = 6.9451e-06, No Iterations 6
time step continuity errors : sum local = 0.0137911, global = -0.000831872, cumulative = 0.00148828
smoothSolver:  Solving for nuTilda, Initial residual = 0.0165299, Final residual = 0.000647072, No Iterations 4
bounding nuTilda, min: -0.00634705 max: 0.0375155 average: 0.00133005
ExecutionTime = 35.1647 s  ClockTime = 35 s

Time = 17s

smoothSolver:  Solving for Ux, Initial residual = 0.0380023, Final residual = 0.00166708, No Iterations 4
smoothSolver:  Solving for Uy, Initial residual = 0.099416, Final residual = 0.00350405, No Iterations 4
smoothSolver:  Solving for Uz, Initial residual = 0.0922397, Final residual = 0.00349936, No Iterations 4
GAMG:  Solving for p, Initial residual = 0.000643462, Final residual = 6.1774e-06, No Iterations 6
time step continuity errors : sum local = 0.0140089, global = -0.000799994, cumulative = 0.000688283
smoothSolver:  Solving for nuTilda, Initial residual = 0.0156212, Final residual = 0.000610907, No Iterations 4
bounding nuTilda, min: -0.00634261 max: 0.0375076 average: 0.0013907
ExecutionTime = 36.8561 s  ClockTime = 37 s

Time = 18s

smoothSolver:  Solving for Ux, Initial residual = 0.0354572, Final residual = 0.00110914, No Iterations 4
smoothSolver:  Solving for Uy, Initial residual = 0.0939563, Final residual = 0.00312616, No Iterations 4
smoothSolver:  Solving for Uz, Initial residual = 0.0866004, Final residual = 0.0031155, No Iterations 4
GAMG:  Solving for p, Initial residual = 0.0011825, Final residual = 9.21612e-06, No Iterations 5
time step continuity errors : sum local = 0.0111758, global = -3.66864e-05, cumulative = 0.000651596
smoothSolver:  Solving for nuTilda, Initial residual = 0.0148234, Final residual = 0.000579644, No Iterations 4
bounding nuTilda, min: -0.0063612 max: 0.0374997 average: 0.00144988
ExecutionTime = 38.2702 s  ClockTime = 39 s

Time = 19s

smoothSolver:  Solving for Ux, Initial residual = 0.0328759, Final residual = 0.00124315, No Iterations 4
smoothSolver:  Solving for Uy, Initial residual = 0.0961702, Final residual = 0.00316446, No Iterations 4
smoothSolver:  Solving for Uz, Initial residual = 0.0882202, Final residual = 0.00286225, No Iterations 4
GAMG:  Solving for p, Initial residual = 0.00286358, Final residual = 2.61525e-05, No Iterations 5
time step continuity errors : sum local = 0.0130322, global = 0.000485484, cumulative = 0.00113708
smoothSolver:  Solving for nuTilda, Initial residual = 0.0141363, Final residual = 0.000551489, No Iterations 4
bounding nuTilda, min: -0.00635296 max: 0.0375083 average: 0.00150742
ExecutionTime = 39.8032 s  ClockTime = 40 s

Time = 20s

smoothSolver:  Solving for Ux, Initial residual = 0.0319631, Final residual = 0.0011113, No Iterations 4
smoothSolver:  Solving for Uy, Initial residual = 0.100496, Final residual = 0.00340819, No Iterations 4
smoothSolver:  Solving for Uz, Initial residual = 0.0929194, Final residual = 0.00323915, No Iterations 4
GAMG:  Solving for p, Initial residual = 0.00285377, Final residual = 1.92263e-05, No Iterations 6
time step continuity errors : sum local = 0.00961218, global = 0.000635296, cumulative = 0.00177238
smoothSolver:  Solving for nuTilda, Initial residual = 0.0135342, Final residual = 0.000527071, No Iterations 4
bounding nuTilda, min: -0.00636443 max: 0.0375186 average: 0.00156288
ExecutionTime = 41.8577 s  ClockTime = 42 s

Time = 21s

smoothSolver:  Solving for Ux, Initial residual = 0.030248, Final residual = 0.000913411, No Iterations 4
smoothSolver:  Solving for Uy, Initial residual = 0.0982723, Final residual = 0.00311038, No Iterations 4
smoothSolver:  Solving for Uz, Initial residual = 0.0894887, Final residual = 0.00293458, No Iterations 4
GAMG:  Solving for p, Initial residual = 0.00135595, Final residual = 1.095e-05, No Iterations 5
time step continuity errors : sum local = 0.0115819, global = 0.000135157, cumulative = 0.00190753
smoothSolver:  Solving for nuTilda, Initial residual = 0.0129894, Final residual = 0.000505217, No Iterations 4
bounding nuTilda, min: -0.00634989 max: 0.0375182 average: 0.00161638
ExecutionTime = 43.6896 s  ClockTime = 44 s

Time = 22s

smoothSolver:  Solving for Ux, Initial residual = 0.0293708, Final residual = 0.000968115, No Iterations 4
smoothSolver:  Solving for Uy, Initial residual = 0.094477, Final residual = 0.00281053, No Iterations 4
smoothSolver:  Solving for Uz, Initial residual = 0.0834929, Final residual = 0.0024279, No Iterations 4
GAMG:  Solving for p, Initial residual = 0.000847476, Final residual = 6.67607e-06, No Iterations 5
time step continuity errors : sum local = 0.0113175, global = -0.000146449, cumulative = 0.00176108
smoothSolver:  Solving for nuTilda, Initial residual = 0.0125333, Final residual = 0.000486083, No Iterations 4
bounding nuTilda, min: -0.00635854 max: 0.0375113 average: 0.00166822
ExecutionTime = 45.3555 s  ClockTime = 46 s

Time = 23s

smoothSolver:  Solving for Ux, Initial residual = 0.0288502, Final residual = 0.000988777, No Iterations 4
smoothSolver:  Solving for Uy, Initial residual = 0.0936369, Final residual = 0.00279633, No Iterations 4
smoothSolver:  Solving for Uz, Initial residual = 0.0808527, Final residual = 0.00240051, No Iterations 4
GAMG:  Solving for p, Initial residual = 0.000687452, Final residual = 5.68642e-06, No Iterations 5
time step continuity errors : sum local = 0.011682, global = -8.12927e-05, cumulative = 0.00167979
smoothSolver:  Solving for nuTilda, Initial residual = 0.0121385, Final residual = 0.000469301, No Iterations 4
bounding nuTilda, min: -0.00634704 max: 0.0375184 average: 0.00171879
ExecutionTime = 47.0208 s  ClockTime = 47 s

Time = 24s

smoothSolver:  Solving for Ux, Initial residual = 0.0268051, Final residual = 0.00084968, No Iterations 4
smoothSolver:  Solving for Uy, Initial residual = 0.0953726, Final residual = 0.00267592, No Iterations 4
smoothSolver:  Solving for Uz, Initial residual = 0.0810662, Final residual = 0.00234075, No Iterations 4
GAMG:  Solving for p, Initial residual = 0.000684507, Final residual = 5.46771e-06, No Iterations 5
time step continuity errors : sum local = 0.0111761, global = -9.20688e-05, cumulative = 0.00158772
smoothSolver:  Solving for nuTilda, Initial residual = 0.011778, Final residual = 0.000454292, No Iterations 4
bounding nuTilda, min: -0.00635888 max: 0.0375243 average: 0.00176782
ExecutionTime = 48.9471 s  ClockTime = 49 s

Time = 25s

smoothSolver:  Solving for Ux, Initial residual = 0.0256607, Final residual = 0.000805905, No Iterations 4
smoothSolver:  Solving for Uy, Initial residual = 0.0989318, Final residual = 0.00258641, No Iterations 4
smoothSolver:  Solving for Uz, Initial residual = 0.0830726, Final residual = 0.00211195, No Iterations 4
GAMG:  Solving for p, Initial residual = 0.000735209, Final residual = 5.29917e-06, No Iterations 5
time step continuity errors : sum local = 0.0101489, global = -0.000140421, cumulative = 0.0014473
smoothSolver:  Solving for nuTilda, Initial residual = 0.0114695, Final residual = 0.000440976, No Iterations 4
bounding nuTilda, min: -0.00634956 max: 0.0375236 average: 0.0018154
ExecutionTime = 50.5013 s  ClockTime = 51 s

Time = 26s

smoothSolver:  Solving for Ux, Initial residual = 0.0252218, Final residual = 0.000764645, No Iterations 4
smoothSolver:  Solving for Uy, Initial residual = 0.101041, Final residual = 0.00264445, No Iterations 4
smoothSolver:  Solving for Uz, Initial residual = 0.0835785, Final residual = 0.00212663, No Iterations 4
GAMG:  Solving for p, Initial residual = 0.000731067, Final residual = 5.43681e-06, No Iterations 5
time step continuity errors : sum local = 0.0105065, global = 0.00021997, cumulative = 0.00166727
smoothSolver:  Solving for nuTilda, Initial residual = 0.0112017, Final residual = 0.00042868, No Iterations 4
bounding nuTilda, min: -0.00636145 max: 0.0375197 average: 0.00186124
ExecutionTime = 51.8688 s  ClockTime = 52 s

Time = 27s

smoothSolver:  Solving for Ux, Initial residual = 0.0252332, Final residual = 0.000706545, No Iterations 4
smoothSolver:  Solving for Uy, Initial residual = 0.101134, Final residual = 0.00272406, No Iterations 4
smoothSolver:  Solving for Uz, Initial residual = 0.0840749, Final residual = 0.00226599, No Iterations 4
GAMG:  Solving for p, Initial residual = 0.000700313, Final residual = 5.13084e-06, No Iterations 5
time step continuity errors : sum local = 0.0104483, global = 0.000184393, cumulative = 0.00185167
smoothSolver:  Solving for nuTilda, Initial residual = 0.0109789, Final residual = 0.000417669, No Iterations 4
bounding nuTilda, min: -0.00634972 max: 0.0375301 average: 0.00190551
ExecutionTime = 53.5426 s  ClockTime = 54 s

Time = 28s

smoothSolver:  Solving for Ux, Initial residual = 0.0247196, Final residual = 0.000662996, No Iterations 4
smoothSolver:  Solving for Uy, Initial residual = 0.101228, Final residual = 0.0027202, No Iterations 4
smoothSolver:  Solving for Uz, Initial residual = 0.084309, Final residual = 0.0022716, No Iterations 4
GAMG:  Solving for p, Initial residual = 0.000630123, Final residual = 6.02424e-06, No Iterations 4
time step continuity errors : sum local = 0.013531, global = 0.000179609, cumulative = 0.00203127
smoothSolver:  Solving for nuTilda, Initial residual = 0.0107771, Final residual = 0.000407191, No Iterations 4
bounding nuTilda, min: -0.0063595 max: 0.0375341 average: 0.0019483
ExecutionTime = 54.8617 s  ClockTime = 55 s

Time = 29s

smoothSolver:  Solving for Ux, Initial residual = 0.0241475, Final residual = 0.000642305, No Iterations 4
smoothSolver:  Solving for Uy, Initial residual = 0.102421, Final residual = 0.00269656, No Iterations 4
smoothSolver:  Solving for Uz, Initial residual = 0.0848667, Final residual = 0.00222294, No Iterations 4
GAMG:  Solving for p, Initial residual = 0.000574452, Final residual = 5.60603e-06, No Iterations 4
time step continuity errors : sum local = 0.0138187, global = -0.00028217, cumulative = 0.0017491
smoothSolver:  Solving for nuTilda, Initial residual = 0.0105986, Final residual = 0.000397296, No Iterations 4
bounding nuTilda, min: -0.00634725 max: 0.0375335 average: 0.00198979
ExecutionTime = 56.2283 s  ClockTime = 57 s

Time = 30s

smoothSolver:  Solving for Ux, Initial residual = 0.0236525, Final residual = 0.000637995, No Iterations 4
smoothSolver:  Solving for Uy, Initial residual = 0.103913, Final residual = 0.00261617, No Iterations 4
smoothSolver:  Solving for Uz, Initial residual = 0.0868489, Final residual = 0.00218249, No Iterations 4
GAMG:  Solving for p, Initial residual = 0.000568352, Final residual = 4.2991e-06, No Iterations 5
time step continuity errors : sum local = 0.0107217, global = -0.000225526, cumulative = 0.00152358
smoothSolver:  Solving for nuTilda, Initial residual = 0.0104415, Final residual = 0.000387705, No Iterations 4
bounding nuTilda, min: -0.00635809 max: 0.0375358 average: 0.00202989
ExecutionTime = 57.6289 s  ClockTime = 58 s

Time = 31s

smoothSolver:  Solving for Ux, Initial residual = 0.0235452, Final residual = 0.000619951, No Iterations 4
smoothSolver:  Solving for Uy, Initial residual = 0.104639, Final residual = 0.00253003, No Iterations 4
smoothSolver:  Solving for Uz, Initial residual = 0.0882924, Final residual = 0.0021497, No Iterations 4
GAMG:  Solving for p, Initial residual = 0.000555122, Final residual = 4.5354e-06, No Iterations 5
time step continuity errors : sum local = 0.0112647, global = -0.000179008, cumulative = 0.00134457
smoothSolver:  Solving for nuTilda, Initial residual = 0.0103001, Final residual = 0.000378704, No Iterations 4
bounding nuTilda, min: -0.0063478 max: 0.0375429 average: 0.00206888
ExecutionTime = 59.0153 s  ClockTime = 59 s

Time = 32s

smoothSolver:  Solving for Ux, Initial residual = 0.0239696, Final residual = 0.000593849, No Iterations 4
smoothSolver:  Solving for Uy, Initial residual = 0.104257, Final residual = 0.00245092, No Iterations 4
smoothSolver:  Solving for Uz, Initial residual = 0.0886306, Final residual = 0.0020994, No Iterations 4
GAMG:  Solving for p, Initial residual = 0.000529073, Final residual = 4.28026e-06, No Iterations 5
time step continuity errors : sum local = 0.0108475, global = 8.07729e-05, cumulative = 0.00142534
smoothSolver:  Solving for nuTilda, Initial residual = 0.0101743, Final residual = 0.000370453, No Iterations 4
bounding nuTilda, min: -0.00635972 max: 0.0375448 average: 0.00210677
ExecutionTime = 60.3853 s  ClockTime = 61 s

Time = 33s

smoothSolver:  Solving for Ux, Initial residual = 0.0238683, Final residual = 0.00058698, No Iterations 4
smoothSolver:  Solving for Uy, Initial residual = 0.102322, Final residual = 0.00235034, No Iterations 4
smoothSolver:  Solving for Uz, Initial residual = 0.0873681, Final residual = 0.00201519, No Iterations 4
GAMG:  Solving for p, Initial residual = 0.00051612, Final residual = 4.21211e-06, No Iterations 5
time step continuity errors : sum local = 0.010987, global = 0.00032048, cumulative = 0.00174582
smoothSolver:  Solving for nuTilda, Initial residual = 0.010068, Final residual = 0.000362742, No Iterations 4
bounding nuTilda, min: -0.00634957 max: 0.0375437 average: 0.00214386
ExecutionTime = 61.7955 s  ClockTime = 62 s

Time = 34s

smoothSolver:  Solving for Ux, Initial residual = 0.023324, Final residual = 0.000579779, No Iterations 4
smoothSolver:  Solving for Uy, Initial residual = 0.10032, Final residual = 0.0022678, No Iterations 4
smoothSolver:  Solving for Uz, Initial residual = 0.0866359, Final residual = 0.00188283, No Iterations 4
GAMG:  Solving for p, Initial residual = 0.000510422, Final residual = 4.05655e-06, No Iterations 5
time step continuity errors : sum local = 0.0108354, global = 0.000306465, cumulative = 0.00205229
smoothSolver:  Solving for nuTilda, Initial residual = 0.00997016, Final residual = 0.000355409, No Iterations 4
bounding nuTilda, min: -0.00636086 max: 0.0375517 average: 0.00218044
ExecutionTime = 63.1746 s  ClockTime = 63 s

Time = 35s

smoothSolver:  Solving for Ux, Initial residual = 0.0225005, Final residual = 0.000563418, No Iterations 4
smoothSolver:  Solving for Uy, Initial residual = 0.0986365, Final residual = 0.00227584, No Iterations 4
smoothSolver:  Solving for Uz, Initial residual = 0.0866097, Final residual = 0.00180914, No Iterations 4
GAMG:  Solving for p, Initial residual = 0.000496585, Final residual = 3.97515e-06, No Iterations 5
time step continuity errors : sum local = 0.0108641, global = 0.000208788, cumulative = 0.00226108
smoothSolver:  Solving for nuTilda, Initial residual = 0.0098889, Final residual = 0.000348457, No Iterations 4
bounding nuTilda, min: -0.00634941 max: 0.0375558 average: 0.0022168
ExecutionTime = 64.567 s  ClockTime = 65 s

Time = 36s

smoothSolver:  Solving for Ux, Initial residual = 0.0218992, Final residual = 0.000528452, No Iterations 4
smoothSolver:  Solving for Uy, Initial residual = 0.0982414, Final residual = 0.00230878, No Iterations 4
smoothSolver:  Solving for Uz, Initial residual = 0.0860683, Final residual = 0.00179908, No Iterations 4
GAMG:  Solving for p, Initial residual = 0.000465706, Final residual = 3.83938e-06, No Iterations 5
time step continuity errors : sum local = 0.010992, global = -0.000256291, cumulative = 0.00200479
smoothSolver:  Solving for nuTilda, Initial residual = 0.00982342, Final residual = 0.000341698, No Iterations 4
bounding nuTilda, min: -0.00635981 max: 0.0375563 average: 0.00225316
ExecutionTime = 65.9368 s  ClockTime = 66 s

Time = 37s

smoothSolver:  Solving for Ux, Initial residual = 0.0217818, Final residual = 0.00048745, No Iterations 4
smoothSolver:  Solving for Uy, Initial residual = 0.0982332, Final residual = 0.00228862, No Iterations 4
smoothSolver:  Solving for Uz, Initial residual = 0.0847019, Final residual = 0.0018006, No Iterations 4
GAMG:  Solving for p, Initial residual = 0.000426453, Final residual = 3.77466e-06, No Iterations 5
time step continuity errors : sum local = 0.0114811, global = -0.000558049, cumulative = 0.00144674
smoothSolver:  Solving for nuTilda, Initial residual = 0.00978242, Final residual = 0.000335366, No Iterations 4
bounding nuTilda, min: -0.00634804 max: 0.0375598 average: 0.00229
ExecutionTime = 67.4305 s  ClockTime = 68 s

Time = 38s

smoothSolver:  Solving for Ux, Initial residual = 0.0216599, Final residual = 0.000463491, No Iterations 4
smoothSolver:  Solving for Uy, Initial residual = 0.0976453, Final residual = 0.00222149, No Iterations 4
smoothSolver:  Solving for Uz, Initial residual = 0.0830622, Final residual = 0.00175612, No Iterations 4
GAMG:  Solving for p, Initial residual = 0.000383653, Final residual = 3.42818e-06, No Iterations 5
time step continuity errors : sum local = 0.0113456, global = -0.000342606, cumulative = 0.00110413
smoothSolver:  Solving for nuTilda, Initial residual = 0.00975859, Final residual = 0.000329345, No Iterations 4
bounding nuTilda, min: -0.00635898 max: 0.0375654 average: 0.00232741
ExecutionTime = 68.9473 s  ClockTime = 69 s

Time = 39s

smoothSolver:  Solving for Ux, Initial residual = 0.0210187, Final residual = 0.000439254, No Iterations 4
smoothSolver:  Solving for Uy, Initial residual = 0.096336, Final residual = 0.00209681, No Iterations 4
smoothSolver:  Solving for Uz, Initial residual = 0.0822793, Final residual = 0.00165964, No Iterations 4
GAMG:  Solving for p, Initial residual = 0.000334664, Final residual = 3.11216e-06, No Iterations 5
time step continuity errors : sum local = 0.0114003, global = -0.000310314, cumulative = 0.000793817
smoothSolver:  Solving for nuTilda, Initial residual = 0.00974401, Final residual = 0.000323652, No Iterations 4
bounding nuTilda, min: -0.00634827 max: 0.0375674 average: 0.00236553
ExecutionTime = 70.42 s  ClockTime = 71 s

Time = 40s

smoothSolver:  Solving for Ux, Initial residual = 0.0199796, Final residual = 0.000400914, No Iterations 4
smoothSolver:  Solving for Uy, Initial residual = 0.0944952, Final residual = 0.00200545, No Iterations 4
smoothSolver:  Solving for Uz, Initial residual = 0.0819307, Final residual = 0.00156794, No Iterations 4
GAMG:  Solving for p, Initial residual = 0.000300727, Final residual = 2.82888e-06, No Iterations 5
time step continuity errors : sum local = 0.0111397, global = -0.000254204, cumulative = 0.000539613
smoothSolver:  Solving for nuTilda, Initial residual = 0.00973968, Final residual = 0.000318194, No Iterations 4
bounding nuTilda, min: -0.00635965 max: 0.0375673 average: 0.00240436
ExecutionTime = 71.9884 s  ClockTime = 72 s

Time = 41s

smoothSolver:  Solving for Ux, Initial residual = 0.019056, Final residual = 0.000367764, No Iterations 4
smoothSolver:  Solving for Uy, Initial residual = 0.0926668, Final residual = 0.00194315, No Iterations 4
smoothSolver:  Solving for Uz, Initial residual = 0.0813935, Final residual = 0.00151189, No Iterations 4
GAMG:  Solving for p, Initial residual = 0.000274962, Final residual = 2.65942e-06, No Iterations 5
time step continuity errors : sum local = 0.011027, global = 0.000110125, cumulative = 0.000649738
smoothSolver:  Solving for nuTilda, Initial residual = 0.00975304, Final residual = 0.000313009, No Iterations 4
bounding nuTilda, min: -0.00634905 max: 0.0375743 average: 0.00244397
ExecutionTime = 73.4308 s  ClockTime = 74 s

Time = 42s

smoothSolver:  Solving for Ux, Initial residual = 0.0185529, Final residual = 0.00184837, No Iterations 2
smoothSolver:  Solving for Uy, Initial residual = 0.0916909, Final residual = 0.00191363, No Iterations 4
smoothSolver:  Solving for Uz, Initial residual = 0.0798613, Final residual = 0.00149065, No Iterations 4
GAMG:  Solving for p, Initial residual = 0.000256148, Final residual = 2.44717e-06, No Iterations 5
time step continuity errors : sum local = 0.0106361, global = 0.000313693, cumulative = 0.000963432
smoothSolver:  Solving for nuTilda, Initial residual = 0.00976988, Final residual = 0.000307981, No Iterations 4
bounding nuTilda, min: -0.00636044 max: 0.0375776 average: 0.00248451
ExecutionTime = 74.8901 s  ClockTime = 75 s

Time = 43s

smoothSolver:  Solving for Ux, Initial residual = 0.0184798, Final residual = 0.0003587, No Iterations 4
smoothSolver:  Solving for Uy, Initial residual = 0.0892292, Final residual = 0.00186351, No Iterations 4
smoothSolver:  Solving for Uz, Initial residual = 0.0772236, Final residual = 0.00145972, No Iterations 4
GAMG:  Solving for p, Initial residual = 0.00024581, Final residual = 2.21054e-06, No Iterations 5
time step continuity errors : sum local = 0.00985203, global = 0.000271297, cumulative = 0.00123473
smoothSolver:  Solving for nuTilda, Initial residual = 0.00980142, Final residual = 0.000303139, No Iterations 4
bounding nuTilda, min: -0.00634925 max: 0.0375784 average: 0.00252605
ExecutionTime = 76.3384 s  ClockTime = 77 s

Time = 44s

smoothSolver:  Solving for Ux, Initial residual = 0.0179269, Final residual = 0.000350418, No Iterations 4
smoothSolver:  Solving for Uy, Initial residual = 0.0872523, Final residual = 0.00181378, No Iterations 4
smoothSolver:  Solving for Uz, Initial residual = 0.0751871, Final residual = 0.00748156, No Iterations 2
GAMG:  Solving for p, Initial residual = 0.000236841, Final residual = 2.10307e-06, No Iterations 5
time step continuity errors : sum local = 0.0096745, global = 0.000277681, cumulative = 0.00151241
smoothSolver:  Solving for nuTilda, Initial residual = 0.00983846, Final residual = 0.0002984, No Iterations 4
bounding nuTilda, min: -0.00636002 max: 0.0375825 average: 0.00256862
ExecutionTime = 77.7576 s  ClockTime = 78 s

Time = 45s

smoothSolver:  Solving for Ux, Initial residual = 0.0170582, Final residual = 0.00169508, No Iterations 2
smoothSolver:  Solving for Uy, Initial residual = 0.0854173, Final residual = 0.0018093, No Iterations 4
smoothSolver:  Solving for Uz, Initial residual = 0.0754109, Final residual = 0.00748805, No Iterations 2
GAMG:  Solving for p, Initial residual = 0.000225451, Final residual = 1.9255e-06, No Iterations 5
time step continuity errors : sum local = 0.00930938, global = 0.000199745, cumulative = 0.00171215
smoothSolver:  Solving for nuTilda, Initial residual = 0.00988477, Final residual = 0.000293712, No Iterations 4
bounding nuTilda, min: -0.00634858 max: 0.0375867 average: 0.00261232
ExecutionTime = 79.0813 s  ClockTime = 79 s

Time = 46s

smoothSolver:  Solving for Ux, Initial residual = 0.0165419, Final residual = 0.000324772, No Iterations 4
smoothSolver:  Solving for Uy, Initial residual = 0.0829946, Final residual = 0.00175974, No Iterations 4
smoothSolver:  Solving for Uz, Initial residual = 0.0746119, Final residual = 0.00150743, No Iterations 4
GAMG:  Solving for p, Initial residual = 0.000212839, Final residual = 1.76358e-06, No Iterations 5
time step continuity errors : sum local = 0.00895664, global = 1.12085e-05, cumulative = 0.00172336
smoothSolver:  Solving for nuTilda, Initial residual = 0.00993744, Final residual = 0.000288788, No Iterations 4
bounding nuTilda, min: -0.0063594 max: 0.0375884 average: 0.00265723
ExecutionTime = 80.475 s  ClockTime = 81 s

Time = 47s

smoothSolver:  Solving for Ux, Initial residual = 0.0160678, Final residual = 0.00156786, No Iterations 2
smoothSolver:  Solving for Uy, Initial residual = 0.0810346, Final residual = 0.00170592, No Iterations 4
smoothSolver:  Solving for Uz, Initial residual = 0.0710894, Final residual = 0.00142917, No Iterations 4
GAMG:  Solving for p, Initial residual = 0.00019989, Final residual = 1.6274e-06, No Iterations 5
time step continuity errors : sum local = 0.00872799, global = -5.97819e-05, cumulative = 0.00166358
smoothSolver:  Solving for nuTilda, Initial residual = 0.00999883, Final residual = 0.000284043, No Iterations 4
bounding nuTilda, min: -0.00634842 max: 0.0375896 average: 0.00270337
ExecutionTime = 81.845 s  ClockTime = 82 s

Time = 48s

smoothSolver:  Solving for Ux, Initial residual = 0.0159519, Final residual = 0.0015556, No Iterations 2
smoothSolver:  Solving for Uy, Initial residual = 0.0784572, Final residual = 0.00160901, No Iterations 4
smoothSolver:  Solving for Uz, Initial residual = 0.0666763, Final residual = 0.006631, No Iterations 2
GAMG:  Solving for p, Initial residual = 0.000184658, Final residual = 1.5293e-06, No Iterations 5
time step continuity errors : sum local = 0.00861299, global = 4.88364e-06, cumulative = 0.00166846
smoothSolver:  Solving for nuTilda, Initial residual = 0.0100737, Final residual = 0.00027927, No Iterations 4
bounding nuTilda, min: -0.00635958 max: 0.0375943 average: 0.00275075
ExecutionTime = 83.2022 s  ClockTime = 83 s

Time = 49s

smoothSolver:  Solving for Ux, Initial residual = 0.0156597, Final residual = 0.00153727, No Iterations 2
smoothSolver:  Solving for Uy, Initial residual = 0.0759055, Final residual = 0.00148719, No Iterations 4
smoothSolver:  Solving for Uz, Initial residual = 0.0645208, Final residual = 0.00640945, No Iterations 2
GAMG:  Solving for p, Initial residual = 0.000168905, Final residual = 1.44871e-06, No Iterations 5
time step continuity errors : sum local = 0.00850277, global = 0.000115749, cumulative = 0.00178421
smoothSolver:  Solving for nuTilda, Initial residual = 0.0101577, Final residual = 0.000274446, No Iterations 4
bounding nuTilda, min: -0.0063486 max: 0.0375965 average: 0.00279943
ExecutionTime = 84.5451 s  ClockTime = 85 s

Time = 50s

smoothSolver:  Solving for Ux, Initial residual = 0.0151535, Final residual = 0.00148466, No Iterations 2
smoothSolver:  Solving for Uy, Initial residual = 0.0739997, Final residual = 0.00731021, No Iterations 2
smoothSolver:  Solving for Uz, Initial residual = 0.0635813, Final residual = 0.00627158, No Iterations 2
GAMG:  Solving for p, Initial residual = 0.00015545, Final residual = 1.37845e-06, No Iterations 5
time step continuity errors : sum local = 0.00838925, global = 0.000198076, cumulative = 0.00198229
smoothSolver:  Solving for nuTilda, Initial residual = 0.0102521, Final residual = 0.0002696, No Iterations 4
bounding nuTilda, min: -0.00635977 max: 0.0388127 average: 0.00284929
ExecutionTime = 85.9171 s  ClockTime = 86 s

Time = 51s

smoothSolver:  Solving for Ux, Initial residual = 0.0146873, Final residual = 0.00142758, No Iterations 2
smoothSolver:  Solving for Uy, Initial residual = 0.0735354, Final residual = 0.0014221, No Iterations 4
smoothSolver:  Solving for Uz, Initial residual = 0.0627562, Final residual = 0.00615564, No Iterations 2
GAMG:  Solving for p, Initial residual = 0.000143424, Final residual = 1.31254e-06, No Iterations 5
time step continuity errors : sum local = 0.00823645, global = 0.000155969, cumulative = 0.00213826
smoothSolver:  Solving for nuTilda, Initial residual = 0.010351, Final residual = 0.000264963, No Iterations 4
bounding nuTilda, min: -0.00634879 max: 0.0400817 average: 0.00290031
ExecutionTime = 87.2823 s  ClockTime = 88 s

Time = 52s

smoothSolver:  Solving for Ux, Initial residual = 0.014453, Final residual = 0.0013927, No Iterations 2
smoothSolver:  Solving for Uy, Initial residual = 0.0713038, Final residual = 0.00704013, No Iterations 2
smoothSolver:  Solving for Uz, Initial residual = 0.0614165, Final residual = 0.0060665, No Iterations 2
GAMG:  Solving for p, Initial residual = 0.000132747, Final residual = 1.2291e-06, No Iterations 5
time step continuity errors : sum local = 0.00794387, global = -5.6469e-05, cumulative = 0.00208179
smoothSolver:  Solving for nuTilda, Initial residual = 0.0104508, Final residual = 0.000260214, No Iterations 4
bounding nuTilda, min: -0.00635997 max: 0.0413696 average: 0.00295258
ExecutionTime = 88.6348 s  ClockTime = 89 s

Time = 53s

smoothSolver:  Solving for Ux, Initial residual = 0.0142532, Final residual = 0.00137683, No Iterations 2
smoothSolver:  Solving for Uy, Initial residual = 0.0702193, Final residual = 0.00693509, No Iterations 2
smoothSolver:  Solving for Uz, Initial residual = 0.0592519, Final residual = 0.00588393, No Iterations 2
GAMG:  Solving for p, Initial residual = 0.00012174, Final residual = 1.08655e-06, No Iterations 5
time step continuity errors : sum local = 0.00725663, global = -0.00012818, cumulative = 0.00195361
smoothSolver:  Solving for nuTilda, Initial residual = 0.0105458, Final residual = 0.000255419, No Iterations 4
bounding nuTilda, min: -0.00634897 max: 0.0425088 average: 0.00300619
ExecutionTime = 89.9561 s  ClockTime = 90 s

Time = 54s

smoothSolver:  Solving for Ux, Initial residual = 0.0139893, Final residual = 0.00136268, No Iterations 2
smoothSolver:  Solving for Uy, Initial residual = 0.069399, Final residual = 0.00681762, No Iterations 2
smoothSolver:  Solving for Uz, Initial residual = 0.0573929, Final residual = 0.00572099, No Iterations 2
GAMG:  Solving for p, Initial residual = 0.00011034, Final residual = 9.83332e-07, No Iterations 5
time step continuity errors : sum local = 0.00686366, global = -0.000148136, cumulative = 0.00180547
smoothSolver:  Solving for nuTilda, Initial residual = 0.0106448, Final residual = 0.000250817, No Iterations 4
bounding nuTilda, min: -0.00635992 max: 0.0436943 average: 0.00306124
ExecutionTime = 91.366 s  ClockTime = 92 s

Time = 55s

smoothSolver:  Solving for Ux, Initial residual = 0.0136274, Final residual = 0.00133746, No Iterations 2
smoothSolver:  Solving for Uy, Initial residual = 0.0686924, Final residual = 0.0066897, No Iterations 2
smoothSolver:  Solving for Uz, Initial residual = 0.0562885, Final residual = 0.00111833, No Iterations 4
GAMG:  Solving for p, Initial residual = 0.000100328, Final residual = 9.32244e-07, No Iterations 5
time step continuity errors : sum local = 0.00683684, global = -0.000163273, cumulative = 0.0016422
smoothSolver:  Solving for nuTilda, Initial residual = 0.0107347, Final residual = 0.000246422, No Iterations 4
bounding nuTilda, min: -0.00634867 max: 0.0447658 average: 0.00311789
ExecutionTime = 92.8958 s  ClockTime = 93 s

Time = 56s

smoothSolver:  Solving for Ux, Initial residual = 0.0132954, Final residual = 0.00132236, No Iterations 2
smoothSolver:  Solving for Uy, Initial residual = 0.0680725, Final residual = 0.0066162, No Iterations 2
smoothSolver:  Solving for Uz, Initial residual = 0.0544576, Final residual = 0.00535145, No Iterations 2
GAMG:  Solving for p, Initial residual = 9.21295e-05, Final residual = 8.61834e-07, No Iterations 5
time step continuity errors : sum local = 0.00661179, global = -0.00019006, cumulative = 0.00145214
smoothSolver:  Solving for nuTilda, Initial residual = 0.0108184, Final residual = 0.000242159, No Iterations 4
bounding nuTilda, min: -0.00635961 max: 0.0457661 average: 0.00317608
ExecutionTime = 94.2564 s  ClockTime = 95 s

Time = 57s

smoothSolver:  Solving for Ux, Initial residual = 0.0129643, Final residual = 0.000264182, No Iterations 4
smoothSolver:  Solving for Uy, Initial residual = 0.0671238, Final residual = 0.00650209, No Iterations 2
smoothSolver:  Solving for Uz, Initial residual = 0.0537892, Final residual = 0.00535035, No Iterations 2
GAMG:  Solving for p, Initial residual = 8.54748e-05, Final residual = 7.89863e-07, No Iterations 5
time step continuity errors : sum local = 0.00626956, global = -9.52677e-05, cumulative = 0.00135687
smoothSolver:  Solving for nuTilda, Initial residual = 0.0109044, Final residual = 0.000237913, No Iterations 4
bounding nuTilda, min: -0.00634856 max: 0.0467732 average: 0.00323558
ExecutionTime = 95.578 s  ClockTime = 96 s

Time = 58s

smoothSolver:  Solving for Ux, Initial residual = 0.0124644, Final residual = 0.00123789, No Iterations 2
smoothSolver:  Solving for Uy, Initial residual = 0.0665717, Final residual = 0.00649258, No Iterations 2
smoothSolver:  Solving for Uz, Initial residual = 0.0536562, Final residual = 0.00108208, No Iterations 4
GAMG:  Solving for p, Initial residual = 7.78215e-05, Final residual = 7.5861e-07, No Iterations 5
time step continuity errors : sum local = 0.00623496, global = -9.21966e-05, cumulative = 0.00126468
smoothSolver:  Solving for nuTilda, Initial residual = 0.0109907, Final residual = 0.000233799, No Iterations 4
bounding nuTilda, min: -0.0063597 max: 0.0476749 average: 0.00329624
ExecutionTime = 96.9433 s  ClockTime = 97 s

Time = 59s

smoothSolver:  Solving for Ux, Initial residual = 0.0121379, Final residual = 0.00121138, No Iterations 2
smoothSolver:  Solving for Uy, Initial residual = 0.0656163, Final residual = 0.00644128, No Iterations 2
smoothSolver:  Solving for Uz, Initial residual = 0.0518796, Final residual = 0.00515211, No Iterations 2
GAMG:  Solving for p, Initial residual = 7.15609e-05, Final residual = 7.07252e-07, No Iterations 5
time step continuity errors : sum local = 0.00598662, global = -9.23079e-05, cumulative = 0.00117237
smoothSolver:  Solving for nuTilda, Initial residual = 0.0110746, Final residual = 0.000229774, No Iterations 4
bounding nuTilda, min: -0.00634877 max: 0.0486181 average: 0.00335805
ExecutionTime = 98.2595 s  ClockTime = 99 s

Time = 60s

smoothSolver:  Solving for Ux, Initial residual = 0.0117673, Final residual = 0.000238328, No Iterations 4
smoothSolver:  Solving for Uy, Initial residual = 0.0637846, Final residual = 0.0062829, No Iterations 2
smoothSolver:  Solving for Uz, Initial residual = 0.050911, Final residual = 0.000989462, No Iterations 4
GAMG:  Solving for p, Initial residual = 6.75742e-05, Final residual = 6.66307e-07, No Iterations 5
time step continuity errors : sum local = 0.00577948, global = -9.81206e-05, cumulative = 0.00107425
smoothSolver:  Solving for nuTilda, Initial residual = 0.0111504, Final residual = 0.000225524, No Iterations 4
bounding nuTilda, min: -0.0063598 max: 0.0495066 average: 0.00342106
ExecutionTime = 99.6394 s  ClockTime = 100 s

Time = 61s

smoothSolver:  Solving for Ux, Initial residual = 0.0113044, Final residual = 0.00112688, No Iterations 2
smoothSolver:  Solving for Uy, Initial residual = 0.0625829, Final residual = 0.00620758, No Iterations 2
smoothSolver:  Solving for Uz, Initial residual = 0.0494858, Final residual = 0.00491739, No Iterations 2
GAMG:  Solving for p, Initial residual = 6.23909e-05, Final residual = 6.21906e-07, No Iterations 5
time step continuity errors : sum local = 0.00550482, global = -0.000115971, cumulative = 0.000958278
smoothSolver:  Solving for nuTilda, Initial residual = 0.0112226, Final residual = 0.000221293, No Iterations 4
bounding nuTilda, min: -0.00634866 max: 0.0504226 average: 0.00348588
ExecutionTime = 101.007 s  ClockTime = 101 s

Time = 62s

smoothSolver:  Solving for Ux, Initial residual = 0.0109769, Final residual = 0.000218837, No Iterations 4
smoothSolver:  Solving for Uy, Initial residual = 0.060945, Final residual = 0.00606479, No Iterations 2
smoothSolver:  Solving for Uz, Initial residual = 0.0489789, Final residual = 0.000943462, No Iterations 4
GAMG:  Solving for p, Initial residual = 5.85542e-05, Final residual = 5.06404e-07, No Iterations 6
time step continuity errors : sum local = 0.00453918, global = -0.000109898, cumulative = 0.00084838
smoothSolver:  Solving for nuTilda, Initial residual = 0.0112845, Final residual = 0.000216993, No Iterations 4
bounding nuTilda, min: -0.00635975 max: 0.0513703 average: 0.00355285
ExecutionTime = 102.587 s  ClockTime = 103 s

Time = 63s

smoothSolver:  Solving for Ux, Initial residual = 0.0105266, Final residual = 0.00105228, No Iterations 2
smoothSolver:  Solving for Uy, Initial residual = 0.0600371, Final residual = 0.00116377, No Iterations 4
smoothSolver:  Solving for Uz, Initial residual = 0.0476875, Final residual = 0.000911392, No Iterations 4
GAMG:  Solving for p, Initial residual = 5.45075e-05, Final residual = 4.74214e-07, No Iterations 6
time step continuity errors : sum local = 0.00431778, global = -0.00012443, cumulative = 0.00072395
smoothSolver:  Solving for nuTilda, Initial residual = 0.0113357, Final residual = 0.000212817, No Iterations 4
bounding nuTilda, min: -0.00634874 max: 0.0523147 average: 0.0036222
ExecutionTime = 103.992 s  ClockTime = 104 s

Time = 64s

smoothSolver:  Solving for Ux, Initial residual = 0.0102219, Final residual = 0.000206662, No Iterations 4
smoothSolver:  Solving for Uy, Initial residual = 0.0571756, Final residual = 0.00567015, No Iterations 2
smoothSolver:  Solving for Uz, Initial residual = 0.0457149, Final residual = 0.000883022, No Iterations 4
GAMG:  Solving for p, Initial residual = 5.0754e-05, Final residual = 4.29938e-07, No Iterations 6
time step continuity errors : sum local = 0.00397857, global = -8.7246e-05, cumulative = 0.000636704
smoothSolver:  Solving for nuTilda, Initial residual = 0.0113673, Final residual = 0.000208735, No Iterations 4
bounding nuTilda, min: -0.00635976 max: 0.0532631 average: 0.00369398
ExecutionTime = 105.486 s  ClockTime = 106 s

Time = 65s

smoothSolver:  Solving for Ux, Initial residual = 0.00973805, Final residual = 0.000192557, No Iterations 4
smoothSolver:  Solving for Uy, Initial residual = 0.0557075, Final residual = 0.00107607, No Iterations 4
smoothSolver:  Solving for Uz, Initial residual = 0.0438089, Final residual = 0.000866033, No Iterations 4
GAMG:  Solving for p, Initial residual = 4.75902e-05, Final residual = 4.69185e-07, No Iterations 5
time step continuity errors : sum local = 0.00443008, global = -6.25214e-05, cumulative = 0.000574183
smoothSolver:  Solving for nuTilda, Initial residual = 0.011389, Final residual = 0.00020461, No Iterations 4
bounding nuTilda, min: -0.00634872 max: 0.0542101 average: 0.00376782
ExecutionTime = 107.108 s  ClockTime = 107 s

Time = 66s

smoothSolver:  Solving for Ux, Initial residual = 0.00932038, Final residual = 0.000178743, No Iterations 4
smoothSolver:  Solving for Uy, Initial residual = 0.0531965, Final residual = 0.000999275, No Iterations 4
smoothSolver:  Solving for Uz, Initial residual = 0.0423178, Final residual = 0.000837684, No Iterations 4
GAMG:  Solving for p, Initial residual = 4.53481e-05, Final residual = 3.83796e-07, No Iterations 6
time step continuity errors : sum local = 0.00369249, global = -1.51319e-05, cumulative = 0.000559051
smoothSolver:  Solving for nuTilda, Initial residual = 0.0113923, Final residual = 0.000200543, No Iterations 4
bounding nuTilda, min: -0.00635969 max: 0.0551438 average: 0.00384327
ExecutionTime = 108.827 s  ClockTime = 109 s

Time = 67s

smoothSolver:  Solving for Ux, Initial residual = 0.00896373, Final residual = 0.000166534, No Iterations 4
smoothSolver:  Solving for Uy, Initial residual = 0.0508524, Final residual = 0.000918331, No Iterations 4
smoothSolver:  Solving for Uz, Initial residual = 0.0413505, Final residual = 0.000800737, No Iterations 4
GAMG:  Solving for p, Initial residual = 4.35551e-05, Final residual = 3.66266e-07, No Iterations 6
time step continuity errors : sum local = 0.0035794, global = 5.45907e-05, cumulative = 0.000613642
smoothSolver:  Solving for nuTilda, Initial residual = 0.0113915, Final residual = 0.000196437, No Iterations 4
bounding nuTilda, min: -0.00634864 max: 0.0560651 average: 0.00392002
ExecutionTime = 110.459 s  ClockTime = 111 s

Time = 68s

smoothSolver:  Solving for Ux, Initial residual = 0.0086244, Final residual = 0.000156663, No Iterations 4
smoothSolver:  Solving for Uy, Initial residual = 0.0487189, Final residual = 0.000860498, No Iterations 4
smoothSolver:  Solving for Uz, Initial residual = 0.0402047, Final residual = 0.000763392, No Iterations 4
GAMG:  Solving for p, Initial residual = 4.20428e-05, Final residual = 4.15988e-07, No Iterations 5
time step continuity errors : sum local = 0.00411443, global = 0.000133281, cumulative = 0.000746923
smoothSolver:  Solving for nuTilda, Initial residual = 0.0113752, Final residual = 0.000192205, No Iterations 4
bounding nuTilda, min: -0.00635976 max: 0.0570082 average: 0.00399784
ExecutionTime = 112.367 s  ClockTime = 113 s

Time = 69s

smoothSolver:  Solving for Ux, Initial residual = 0.00826502, Final residual = 0.00014827, No Iterations 4
smoothSolver:  Solving for Uy, Initial residual = 0.0468308, Final residual = 0.000829836, No Iterations 4
smoothSolver:  Solving for Uz, Initial residual = 0.0388291, Final residual = 0.000729982, No Iterations 4
GAMG:  Solving for p, Initial residual = 4.06706e-05, Final residual = 3.42288e-07, No Iterations 6
time step continuity errors : sum local = 0.00337399, global = 8.51564e-05, cumulative = 0.000832079
smoothSolver:  Solving for nuTilda, Initial residual = 0.0113531, Final residual = 0.00113295, No Iterations 2
bounding nuTilda, min: -0.00634851 max: 0.0578644 average: 0.00407105
ExecutionTime = 114.364 s  ClockTime = 115 s

Time = 70s

smoothSolver:  Solving for Ux, Initial residual = 0.00789019, Final residual = 0.000786713, No Iterations 2
smoothSolver:  Solving for Uy, Initial residual = 0.0453687, Final residual = 0.000810434, No Iterations 4
smoothSolver:  Solving for Uz, Initial residual = 0.037392, Final residual = 0.000700077, No Iterations 4
GAMG:  Solving for p, Initial residual = 3.92423e-05, Final residual = 3.28993e-07, No Iterations 6
time step continuity errors : sum local = 0.00319974, global = 8.34564e-05, cumulative = 0.000915535
smoothSolver:  Solving for nuTilda, Initial residual = 0.0113375, Final residual = 0.00112177, No Iterations 2
bounding nuTilda, min: -0.00634709 max: 0.058783 average: 0.00414451
ExecutionTime = 115.903 s  ClockTime = 116 s

Time = 71s

smoothSolver:  Solving for Ux, Initial residual = 0.00760184, Final residual = 0.000134259, No Iterations 4
smoothSolver:  Solving for Uy, Initial residual = 0.0437616, Final residual = 0.00077326, No Iterations 4
smoothSolver:  Solving for Uz, Initial residual = 0.0356425, Final residual = 0.000652164, No Iterations 4
GAMG:  Solving for p, Initial residual = 3.88566e-05, Final residual = 3.67516e-07, No Iterations 5
time step continuity errors : sum local = 0.00353094, global = 8.77852e-05, cumulative = 0.00100332
smoothSolver:  Solving for nuTilda, Initial residual = 0.0113104, Final residual = 0.00110932, No Iterations 2
bounding nuTilda, min: -0.00633118 max: 0.0596873 average: 0.00421887
ExecutionTime = 117.407 s  ClockTime = 118 s

Time = 72s

smoothSolver:  Solving for Ux, Initial residual = 0.0072185, Final residual = 0.000715107, No Iterations 2
smoothSolver:  Solving for Uy, Initial residual = 0.0428122, Final residual = 0.00426049, No Iterations 2
smoothSolver:  Solving for Uz, Initial residual = 0.034468, Final residual = 0.000619924, No Iterations 4
GAMG:  Solving for p, Initial residual = 3.82571e-05, Final residual = 3.72754e-07, No Iterations 5
time step continuity errors : sum local = 0.0035409, global = 7.28159e-05, cumulative = 0.00107614
smoothSolver:  Solving for nuTilda, Initial residual = 0.0112634, Final residual = 0.00109735, No Iterations 2
bounding nuTilda, min: -0.00630927 max: 0.0605613 average: 0.00429347
ExecutionTime = 118.981 s  ClockTime = 119 s

Time = 73s

smoothSolver:  Solving for Ux, Initial residual = 0.0068824, Final residual = 0.000683082, No Iterations 2
smoothSolver:  Solving for Uy, Initial residual = 0.0422409, Final residual = 0.00421878, No Iterations 2
smoothSolver:  Solving for Uz, Initial residual = 0.0331925, Final residual = 0.000584423, No Iterations 4
GAMG:  Solving for p, Initial residual = 3.71502e-05, Final residual = 3.16764e-07, No Iterations 6
time step continuity errors : sum local = 0.00298629, global = 5.73322e-05, cumulative = 0.00113347
smoothSolver:  Solving for nuTilda, Initial residual = 0.0111946, Final residual = 0.00108462, No Iterations 2
bounding nuTilda, min: -0.0063187 max: 0.0613303 average: 0.00436924
ExecutionTime = 120.354 s  ClockTime = 121 s

Time = 74s

smoothSolver:  Solving for Ux, Initial residual = 0.00652437, Final residual = 0.000652251, No Iterations 2
smoothSolver:  Solving for Uy, Initial residual = 0.0411153, Final residual = 0.000729246, No Iterations 4
smoothSolver:  Solving for Uz, Initial residual = 0.0318863, Final residual = 0.000553577, No Iterations 4
GAMG:  Solving for p, Initial residual = 3.63842e-05, Final residual = 3.58265e-07, No Iterations 5
time step continuity errors : sum local = 0.0033569, global = 7.00243e-05, cumulative = 0.00120349
smoothSolver:  Solving for nuTilda, Initial residual = 0.0111198, Final residual = 0.00107127, No Iterations 2
bounding nuTilda, min: -0.00631597 max: 0.062159 average: 0.00444476
ExecutionTime = 121.69 s  ClockTime = 122 s

Time = 75s

smoothSolver:  Solving for Ux, Initial residual = 0.00617737, Final residual = 0.000109385, No Iterations 4
smoothSolver:  Solving for Uy, Initial residual = 0.0383964, Final residual = 0.000692346, No Iterations 4
smoothSolver:  Solving for Uz, Initial residual = 0.0306823, Final residual = 0.000533835, No Iterations 4
GAMG:  Solving for p, Initial residual = 3.60398e-05, Final residual = 3.57251e-07, No Iterations 5
time step continuity errors : sum local = 0.00332965, global = 8.81983e-05, cumulative = 0.00129169
smoothSolver:  Solving for nuTilda, Initial residual = 0.0110197, Final residual = 0.0010562, No Iterations 2
bounding nuTilda, min: -0.00630361 max: 0.0630344 average: 0.00451929
ExecutionTime = 123.004 s  ClockTime = 123 s

Time = 76s

smoothSolver:  Solving for Ux, Initial residual = 0.00577557, Final residual = 0.000101939, No Iterations 4
smoothSolver:  Solving for Uy, Initial residual = 0.0359888, Final residual = 0.000658052, No Iterations 4
smoothSolver:  Solving for Uz, Initial residual = 0.0297019, Final residual = 0.0005215, No Iterations 4
GAMG:  Solving for p, Initial residual = 3.53996e-05, Final residual = 2.97951e-07, No Iterations 6
time step continuity errors : sum local = 0.00275382, global = 6.03112e-05, cumulative = 0.001352
smoothSolver:  Solving for nuTilda, Initial residual = 0.0109083, Final residual = 0.00104013, No Iterations 2
bounding nuTilda, min: -0.00631744 max: 0.0638598 average: 0.00459386
ExecutionTime = 124.35 s  ClockTime = 125 s

Time = 77s

smoothSolver:  Solving for Ux, Initial residual = 0.00547628, Final residual = 9.50029e-05, No Iterations 4
smoothSolver:  Solving for Uy, Initial residual = 0.034106, Final residual = 0.000628871, No Iterations 4
smoothSolver:  Solving for Uz, Initial residual = 0.0285919, Final residual = 0.000500495, No Iterations 4
GAMG:  Solving for p, Initial residual = 3.48926e-05, Final residual = 2.94767e-07, No Iterations 6
time step continuity errors : sum local = 0.00268104, global = 5.95887e-05, cumulative = 0.00141159
smoothSolver:  Solving for nuTilda, Initial residual = 0.0107844, Final residual = 0.00102336, No Iterations 2
bounding nuTilda, min: -0.00631601 max: 0.0646936 average: 0.00466732
ExecutionTime = 125.717 s  ClockTime = 126 s

Time = 78s

smoothSolver:  Solving for Ux, Initial residual = 0.0052087, Final residual = 9.06003e-05, No Iterations 4
smoothSolver:  Solving for Uy, Initial residual = 0.0325291, Final residual = 0.000599709, No Iterations 4
smoothSolver:  Solving for Uz, Initial residual = 0.0272564, Final residual = 0.000469946, No Iterations 4
GAMG:  Solving for p, Initial residual = 3.48347e-05, Final residual = 2.94977e-07, No Iterations 6
time step continuity errors : sum local = 0.00263459, global = 5.96673e-05, cumulative = 0.00147126
smoothSolver:  Solving for nuTilda, Initial residual = 0.0106557, Final residual = 0.00100619, No Iterations 2
bounding nuTilda, min: -0.00630426 max: 0.0655689 average: 0.00473919
ExecutionTime = 127.154 s  ClockTime = 127 s

Time = 79s

smoothSolver:  Solving for Ux, Initial residual = 0.00495873, Final residual = 8.82388e-05, No Iterations 4
smoothSolver:  Solving for Uy, Initial residual = 0.0309092, Final residual = 0.000574227, No Iterations 4
smoothSolver:  Solving for Uz, Initial residual = 0.025788, Final residual = 0.000437608, No Iterations 4
GAMG:  Solving for p, Initial residual = 3.41506e-05, Final residual = 3.38965e-07, No Iterations 5
time step continuity errors : sum local = 0.00297862, global = 7.40836e-05, cumulative = 0.00154534
smoothSolver:  Solving for nuTilda, Initial residual = 0.0105261, Final residual = 0.000988539, No Iterations 2
bounding nuTilda, min: -0.00631758 max: 0.0663628 average: 0.00481132
ExecutionTime = 128.482 s  ClockTime = 129 s

Time = 80s

smoothSolver:  Solving for Ux, Initial residual = 0.00473439, Final residual = 8.68284e-05, No Iterations 4
smoothSolver:  Solving for Uy, Initial residual = 0.02934, Final residual = 0.000550766, No Iterations 4
smoothSolver:  Solving for Uz, Initial residual = 0.0243582, Final residual = 0.000411544, No Iterations 4
GAMG:  Solving for p, Initial residual = 3.36136e-05, Final residual = 2.98527e-07, No Iterations 6
time step continuity errors : sum local = 0.00258579, global = 5.59344e-05, cumulative = 0.00160128
smoothSolver:  Solving for nuTilda, Initial residual = 0.0104036, Final residual = 0.000970986, No Iterations 2
bounding nuTilda, min: -0.00631619 max: 0.0670968 average: 0.00488196
ExecutionTime = 130.034 s  ClockTime = 130 s

Time = 81s

smoothSolver:  Solving for Ux, Initial residual = 0.00455769, Final residual = 8.55565e-05, No Iterations 4
smoothSolver:  Solving for Uy, Initial residual = 0.0281042, Final residual = 0.000526322, No Iterations 4
smoothSolver:  Solving for Uz, Initial residual = 0.0231326, Final residual = 0.000393607, No Iterations 4
GAMG:  Solving for p, Initial residual = 3.33703e-05, Final residual = 2.97457e-07, No Iterations 6
time step continuity errors : sum local = 0.00254085, global = 5.43473e-05, cumulative = 0.00165562
smoothSolver:  Solving for nuTilda, Initial residual = 0.0102785, Final residual = 0.000953423, No Iterations 2
bounding nuTilda, min: -0.00630391 max: 0.0678798 average: 0.00495131
ExecutionTime = 131.778 s  ClockTime = 132 s

Time = 82s

smoothSolver:  Solving for Ux, Initial residual = 0.00445715, Final residual = 8.43683e-05, No Iterations 4
smoothSolver:  Solving for Uy, Initial residual = 0.0273686, Final residual = 0.000500454, No Iterations 4
smoothSolver:  Solving for Uz, Initial residual = 0.0220492, Final residual = 0.000378739, No Iterations 4
GAMG:  Solving for p, Initial residual = 3.33656e-05, Final residual = 2.92448e-07, No Iterations 6
time step continuity errors : sum local = 0.0024629, global = 5.37581e-05, cumulative = 0.00170938
smoothSolver:  Solving for nuTilda, Initial residual = 0.0101545, Final residual = 0.000935686, No Iterations 2
bounding nuTilda, min: -0.00631753 max: 0.068865 average: 0.00502097
ExecutionTime = 133.504 s  ClockTime = 134 s

Time = 83s

smoothSolver:  Solving for Ux, Initial residual = 0.00438635, Final residual = 8.32657e-05, No Iterations 4
smoothSolver:  Solving for Uy, Initial residual = 0.0269475, Final residual = 0.000477567, No Iterations 4
smoothSolver:  Solving for Uz, Initial residual = 0.0211553, Final residual = 0.000366172, No Iterations 4
GAMG:  Solving for p, Initial residual = 3.35861e-05, Final residual = 2.87049e-07, No Iterations 6
time step continuity errors : sum local = 0.00238824, global = 5.40541e-05, cumulative = 0.00176344
smoothSolver:  Solving for nuTilda, Initial residual = 0.0100331, Final residual = 0.00091714, No Iterations 2
bounding nuTilda, min: -0.00631587 max: 0.0698618 average: 0.00508969
ExecutionTime = 135.127 s  ClockTime = 135 s

Time = 84s

smoothSolver:  Solving for Ux, Initial residual = 0.00431893, Final residual = 8.18871e-05, No Iterations 4
smoothSolver:  Solving for Uy, Initial residual = 0.0266008, Final residual = 0.000460895, No Iterations 4
smoothSolver:  Solving for Uz, Initial residual = 0.0204649, Final residual = 0.000354214, No Iterations 4
GAMG:  Solving for p, Initial residual = 3.37534e-05, Final residual = 3.37486e-07, No Iterations 5
time step continuity errors : sum local = 0.00276982, global = 7.06294e-05, cumulative = 0.00183407
smoothSolver:  Solving for nuTilda, Initial residual = 0.00991007, Final residual = 0.000898372, No Iterations 2
bounding nuTilda, min: -0.00630402 max: 0.0707907 average: 0.00515743
ExecutionTime = 137.376 s  ClockTime = 138 s

Time = 85s

smoothSolver:  Solving for Ux, Initial residual = 0.00424559, Final residual = 7.98996e-05, No Iterations 4
smoothSolver:  Solving for Uy, Initial residual = 0.0262631, Final residual = 0.000450586, No Iterations 4
smoothSolver:  Solving for Uz, Initial residual = 0.019974, Final residual = 0.000342523, No Iterations 4
GAMG:  Solving for p, Initial residual = 3.35906e-05, Final residual = 3.0036e-07, No Iterations 6
time step continuity errors : sum local = 0.00244417, global = 6.2782e-05, cumulative = 0.00189685
smoothSolver:  Solving for nuTilda, Initial residual = 0.00979243, Final residual = 0.000878758, No Iterations 2
bounding nuTilda, min: -0.00631734 max: 0.0716801 average: 0.00522624
ExecutionTime = 139.51 s  ClockTime = 140 s

Time = 86s

smoothSolver:  Solving for Ux, Initial residual = 0.00417247, Final residual = 7.79451e-05, No Iterations 4
smoothSolver:  Solving for Uy, Initial residual = 0.0259937, Final residual = 0.000443202, No Iterations 4
smoothSolver:  Solving for Uz, Initial residual = 0.0197167, Final residual = 0.000333414, No Iterations 4
GAMG:  Solving for p, Initial residual = 3.3081e-05, Final residual = 2.98478e-07, No Iterations 6
time step continuity errors : sum local = 0.00240869, global = 6.13074e-05, cumulative = 0.00195815
smoothSolver:  Solving for nuTilda, Initial residual = 0.00967637, Final residual = 0.000858633, No Iterations 2
bounding nuTilda, min: -0.00631604 max: 0.0726423 average: 0.00529472
ExecutionTime = 141.289 s  ClockTime = 142 s

Time = 87s

smoothSolver:  Solving for Ux, Initial residual = 0.00411795, Final residual = 7.64767e-05, No Iterations 4
smoothSolver:  Solving for Uy, Initial residual = 0.0256505, Final residual = 0.000437571, No Iterations 4
smoothSolver:  Solving for Uz, Initial residual = 0.0194437, Final residual = 0.00193781, No Iterations 2
GAMG:  Solving for p, Initial residual = 3.25855e-05, Final residual = 2.90421e-07, No Iterations 6
time step continuity errors : sum local = 0.00232674, global = 5.45676e-05, cumulative = 0.00201272
smoothSolver:  Solving for nuTilda, Initial residual = 0.00955843, Final residual = 0.000838418, No Iterations 2
bounding nuTilda, min: -0.00630383 max: 0.0736253 average: 0.0053631
ExecutionTime = 143.102 s  ClockTime = 143 s

Time = 88s

smoothSolver:  Solving for Ux, Initial residual = 0.00407992, Final residual = 7.48073e-05, No Iterations 4
smoothSolver:  Solving for Uy, Initial residual = 0.0251712, Final residual = 0.000428904, No Iterations 4
smoothSolver:  Solving for Uz, Initial residual = 0.0195777, Final residual = 0.000343821, No Iterations 4
GAMG:  Solving for p, Initial residual = 3.24552e-05, Final residual = 2.83489e-07, No Iterations 6
time step continuity errors : sum local = 0.00224248, global = 4.97088e-05, cumulative = 0.00206243
smoothSolver:  Solving for nuTilda, Initial residual = 0.00944661, Final residual = 0.00081815, No Iterations 2
bounding nuTilda, min: -0.00631752 max: 0.0746076 average: 0.00543293
ExecutionTime = 144.708 s  ClockTime = 145 s

Time = 89s

smoothSolver:  Solving for Ux, Initial residual = 0.00407431, Final residual = 7.35307e-05, No Iterations 4
smoothSolver:  Solving for Uy, Initial residual = 0.0248344, Final residual = 0.000421663, No Iterations 4
smoothSolver:  Solving for Uz, Initial residual = 0.0191651, Final residual = 0.000333828, No Iterations 4
GAMG:  Solving for p, Initial residual = 3.22432e-05, Final residual = 2.80512e-07, No Iterations 6
time step continuity errors : sum local = 0.00219346, global = 4.54731e-05, cumulative = 0.0021079
smoothSolver:  Solving for nuTilda, Initial residual = 0.00934016, Final residual = 0.000798014, No Iterations 2
bounding nuTilda, min: -0.00631588 max: 0.0755839 average: 0.00550298
ExecutionTime = 146.273 s  ClockTime = 147 s

Time = 90s

smoothSolver:  Solving for Ux, Initial residual = 0.00407952, Final residual = 0.000404704, No Iterations 2
smoothSolver:  Solving for Uy, Initial residual = 0.0246567, Final residual = 0.000417328, No Iterations 4
smoothSolver:  Solving for Uz, Initial residual = 0.0187374, Final residual = 0.00184215, No Iterations 2
GAMG:  Solving for p, Initial residual = 3.16277e-05, Final residual = 2.81581e-07, No Iterations 6
time step continuity errors : sum local = 0.00218731, global = 4.39374e-05, cumulative = 0.00215184
smoothSolver:  Solving for nuTilda, Initial residual = 0.0092341, Final residual = 0.00077864, No Iterations 2
bounding nuTilda, min: -0.00630405 max: 0.0765865 average: 0.00557307
ExecutionTime = 147.734 s  ClockTime = 148 s

Time = 91s

smoothSolver:  Solving for Ux, Initial residual = 0.00410657, Final residual = 0.000406762, No Iterations 2
smoothSolver:  Solving for Uy, Initial residual = 0.0241695, Final residual = 0.0023814, No Iterations 2
smoothSolver:  Solving for Uz, Initial residual = 0.0186568, Final residual = 0.00182634, No Iterations 2
GAMG:  Solving for p, Initial residual = 3.05413e-05, Final residual = 2.80771e-07, No Iterations 6
time step continuity errors : sum local = 0.00216007, global = 4.1731e-05, cumulative = 0.00219357
smoothSolver:  Solving for nuTilda, Initial residual = 0.00912779, Final residual = 0.000759552, No Iterations 2
bounding nuTilda, min: -0.00631734 max: 0.077559 average: 0.00564492
ExecutionTime = 149.626 s  ClockTime = 150 s

Time = 92s

smoothSolver:  Solving for Ux, Initial residual = 0.00411266, Final residual = 0.000407034, No Iterations 2
smoothSolver:  Solving for Uy, Initial residual = 0.0243192, Final residual = 0.00238718, No Iterations 2
smoothSolver:  Solving for Uz, Initial residual = 0.0185757, Final residual = 0.00181993, No Iterations 2
GAMG:  Solving for p, Initial residual = 2.95604e-05, Final residual = 2.82638e-07, No Iterations 6
time step continuity errors : sum local = 0.00216205, global = 4.08455e-05, cumulative = 0.00223442
smoothSolver:  Solving for nuTilda, Initial residual = 0.00902965, Final residual = 0.000740575, No Iterations 2
bounding nuTilda, min: -0.00631605 max: 0.0784894 average: 0.00571681
ExecutionTime = 151.444 s  ClockTime = 152 s

Time = 93s

smoothSolver:  Solving for Ux, Initial residual = 0.00411808, Final residual = 0.000404634, No Iterations 2
smoothSolver:  Solving for Uy, Initial residual = 0.0246236, Final residual = 0.00241243, No Iterations 2
smoothSolver:  Solving for Uz, Initial residual = 0.0185026, Final residual = 0.00181601, No Iterations 2
GAMG:  Solving for p, Initial residual = 2.88816e-05, Final residual = 2.50559e-07, No Iterations 7
time step continuity errors : sum local = 0.00191404, global = 3.62551e-05, cumulative = 0.00227067
smoothSolver:  Solving for nuTilda, Initial residual = 0.00893786, Final residual = 0.000721913, No Iterations 2
bounding nuTilda, min: -0.00630384 max: 0.0793832 average: 0.00578878
ExecutionTime = 153.393 s  ClockTime = 154 s

Time = 94s

smoothSolver:  Solving for Ux, Initial residual = 0.0041463, Final residual = 0.000400836, No Iterations 2
smoothSolver:  Solving for Uy, Initial residual = 0.0248799, Final residual = 0.00241755, No Iterations 2
smoothSolver:  Solving for Uz, Initial residual = 0.0185017, Final residual = 0.00180217, No Iterations 2
GAMG:  Solving for p, Initial residual = 2.81711e-05, Final residual = 2.47015e-07, No Iterations 7
time step continuity errors : sum local = 0.00188744, global = 3.19993e-05, cumulative = 0.00230267
smoothSolver:  Solving for nuTilda, Initial residual = 0.00885078, Final residual = 0.000703651, No Iterations 2
bounding nuTilda, min: -0.00631755 max: 0.0802441 average: 0.00586223
ExecutionTime = 155.01 s  ClockTime = 155 s

Time = 95s

smoothSolver:  Solving for Ux, Initial residual = 0.00419748, Final residual = 0.000398688, No Iterations 2
smoothSolver:  Solving for Uy, Initial residual = 0.0250905, Final residual = 0.00241225, No Iterations 2
smoothSolver:  Solving for Uz, Initial residual = 0.0185823, Final residual = 0.00178157, No Iterations 2
GAMG:  Solving for p, Initial residual = 2.74571e-05, Final residual = 2.4247e-07, No Iterations 7
time step continuity errors : sum local = 0.00185066, global = 2.44898e-05, cumulative = 0.00232716
smoothSolver:  Solving for nuTilda, Initial residual = 0.00876801, Final residual = 0.000685948, No Iterations 2
bounding nuTilda, min: -0.00631586 max: 0.0810763 average: 0.00593577
ExecutionTime = 156.419 s  ClockTime = 157 s

Time = 96s

smoothSolver:  Solving for Ux, Initial residual = 0.00425148, Final residual = 0.000398251, No Iterations 2
smoothSolver:  Solving for Uy, Initial residual = 0.0253155, Final residual = 0.00240616, No Iterations 2
smoothSolver:  Solving for Uz, Initial residual = 0.0187192, Final residual = 0.00176312, No Iterations 2
GAMG:  Solving for p, Initial residual = 2.60279e-05, Final residual = 2.38542e-07, No Iterations 7
time step continuity errors : sum local = 0.0018197, global = 1.73507e-05, cumulative = 0.00234451
smoothSolver:  Solving for nuTilda, Initial residual = 0.00869384, Final residual = 0.000668521, No Iterations 2
bounding nuTilda, min: -0.00630404 max: 0.0819504 average: 0.00600913
ExecutionTime = 157.902 s  ClockTime = 158 s

Time = 97s

smoothSolver:  Solving for Ux, Initial residual = 0.00430205, Final residual = 0.000398845, No Iterations 2
smoothSolver:  Solving for Uy, Initial residual = 0.0255153, Final residual = 0.0023829, No Iterations 2
smoothSolver:  Solving for Uz, Initial residual = 0.018896, Final residual = 0.00174424, No Iterations 2
GAMG:  Solving for p, Initial residual = 2.45442e-05, Final residual = 2.35911e-07, No Iterations 7
time step continuity errors : sum local = 0.00180184, global = 1.10265e-05, cumulative = 0.00235554
smoothSolver:  Solving for nuTilda, Initial residual = 0.00861838, Final residual = 0.000651047, No Iterations 2
bounding nuTilda, min: -0.00631734 max: 0.0828398 average: 0.00608409
ExecutionTime = 159.324 s  ClockTime = 160 s

Time = 98s

smoothSolver:  Solving for Ux, Initial residual = 0.00433856, Final residual = 0.000396792, No Iterations 2
smoothSolver:  Solving for Uy, Initial residual = 0.0257349, Final residual = 0.00235814, No Iterations 2
smoothSolver:  Solving for Uz, Initial residual = 0.0190899, Final residual = 0.001724, No Iterations 2
GAMG:  Solving for p, Initial residual = 2.34292e-05, Final residual = 2.3394e-07, No Iterations 7
time step continuity errors : sum local = 0.00179008, global = 6.1102e-06, cumulative = 0.00236165
smoothSolver:  Solving for nuTilda, Initial residual = 0.00854555, Final residual = 0.000633786, No Iterations 2
bounding nuTilda, min: -0.00631606 max: 0.0837182 average: 0.00615894
ExecutionTime = 160.75 s  ClockTime = 161 s

Time = 99s

smoothSolver:  Solving for Ux, Initial residual = 0.00435886, Final residual = 0.000392488, No Iterations 2
smoothSolver:  Solving for Uy, Initial residual = 0.0259536, Final residual = 0.00234266, No Iterations 2
smoothSolver:  Solving for Uz, Initial residual = 0.0192711, Final residual = 0.00170559, No Iterations 2
GAMG:  Solving for p, Initial residual = 2.22237e-05, Final residual = 2.02593e-07, No Iterations 8
time step continuity errors : sum local = 0.00155406, global = 2.40074e-06, cumulative = 0.00236405
smoothSolver:  Solving for nuTilda, Initial residual = 0.00847434, Final residual = 0.000616916, No Iterations 2
bounding nuTilda, min: -0.00630384 max: 0.0845659 average: 0.00623372
ExecutionTime = 162.356 s  ClockTime = 163 s

Time = 100s

smoothSolver:  Solving for Ux, Initial residual = 0.00437719, Final residual = 0.000387468, No Iterations 2
smoothSolver:  Solving for Uy, Initial residual = 0.0261492, Final residual = 0.00231751, No Iterations 2
smoothSolver:  Solving for Uz, Initial residual = 0.0194944, Final residual = 0.00167837, No Iterations 2
GAMG:  Solving for p, Initial residual = 2.10899e-05, Final residual = 1.98434e-07, No Iterations 8
time step continuity errors : sum local = 0.00152677, global = 9.15674e-07, cumulative = 0.00236497
smoothSolver:  Solving for nuTilda, Initial residual = 0.00840451, Final residual = 0.000600421, No Iterations 2
bounding nuTilda, min: -0.00631754 max: 0.0853819 average: 0.00630992
ExecutionTime = 163.879 s  ClockTime = 164 s

Time = 101s

smoothSolver:  Solving for Ux, Initial residual = 0.00437796, Final residual = 0.000381653, No Iterations 2
smoothSolver:  Solving for Uy, Initial residual = 0.0263033, Final residual = 0.00228051, No Iterations 2
smoothSolver:  Solving for Uz, Initial residual = 0.0196689, Final residual = 0.00164615, No Iterations 2
GAMG:  Solving for p, Initial residual = 2.00303e-05, Final residual = 1.77168e-07, No Iterations 9
time step continuity errors : sum local = 0.00136778, global = 2.95733e-06, cumulative = 0.00236792
smoothSolver:  Solving for nuTilda, Initial residual = 0.00833234, Final residual = 0.000583909, No Iterations 2
bounding nuTilda, min: -0.00631586 max: 0.0861757 average: 0.00638619
ExecutionTime = 165.494 s  ClockTime = 166 s

Time = 102s

smoothSolver:  Solving for Ux, Initial residual = 0.00435109, Final residual = 0.000374369, No Iterations 2
smoothSolver:  Solving for Uy, Initial residual = 0.0263179, Final residual = 0.0022421, No Iterations 2
smoothSolver:  Solving for Uz, Initial residual = 0.0197371, Final residual = 0.00161481, No Iterations 2
GAMG:  Solving for p, Initial residual = 1.90718e-05, Final residual = 1.78197e-07, No Iterations 9
time step continuity errors : sum local = 0.00137909, global = 5.16212e-06, cumulative = 0.00237309
smoothSolver:  Solving for nuTilda, Initial residual = 0.00826067, Final residual = 0.000568249, No Iterations 2
bounding nuTilda, min: -0.00630404 max: 0.0870092 average: 0.00646215
ExecutionTime = 167.079 s  ClockTime = 167 s

Time = 103s

smoothSolver:  Solving for Ux, Initial residual = 0.00430049, Final residual = 0.000365925, No Iterations 2
smoothSolver:  Solving for Uy, Initial residual = 0.0261608, Final residual = 0.00219669, No Iterations 2
smoothSolver:  Solving for Uz, Initial residual = 0.019706, Final residual = 0.00158278, No Iterations 2
GAMG:  Solving for p, Initial residual = 1.82419e-05, Final residual = 1.78332e-07, No Iterations 9
time step continuity errors : sum local = 0.00138169, global = 5.42961e-06, cumulative = 0.00237852
smoothSolver:  Solving for nuTilda, Initial residual = 0.00818953, Final residual = 0.000552797, No Iterations 2
bounding nuTilda, min: -0.00631734 max: 0.0878099 average: 0.00653953
ExecutionTime = 168.698 s  ClockTime = 169 s

Time = 104s

[...]
smoothSolver:  Solving for Uy, Initial residual = 2.66598e-05, Final residual = 1.26261e-06, No Iterations 4
smoothSolver:  Solving for Uz, Initial residual = 2.47129e-05, Final residual = 1.11463e-06, No Iterations 4
GAMG:  Solving for p, Initial residual = 7.13373e-07, Final residual = 3.2697e-08, No Iterations 2
time step continuity errors : sum local = 3.79089e-05, global = 1.92555e-05, cumulative = -0.0917363
smoothSolver:  Solving for nuTilda, Initial residual = 0.00016883, Final residual = 1.31875e-05, No Iterations 2
bounding nuTilda, min: -0.00630386 max: 0.126921 average: 0.0130268
ExecutionTime = 1313.96 s  ClockTime = 1314 s

Time = 976s

smoothSolver:  Solving for Ux, Initial residual = 1.31207e-05, Final residual = 4.57387e-07, No Iterations 4
smoothSolver:  Solving for Uy, Initial residual = 2.73642e-05, Final residual = 1.33623e-06, No Iterations 4
smoothSolver:  Solving for Uz, Initial residual = 2.59092e-05, Final residual = 1.16287e-06, No Iterations 4
GAMG:  Solving for p, Initial residual = 6.67584e-07, Final residual = 8.32905e-08, No Iterations 1
time step continuity errors : sum local = 9.63546e-05, global = -5.97305e-05, cumulative = -0.091796
smoothSolver:  Solving for nuTilda, Initial residual = 0.000168449, Final residual = 1.31555e-05, No Iterations 2
bounding nuTilda, min: -0.00631752 max: 0.126955 average: 0.0130294
ExecutionTime = 1315.11 s  ClockTime = 1316 s

Time = 977s

smoothSolver:  Solving for Ux, Initial residual = 1.31214e-05, Final residual = 4.5641e-07, No Iterations 4
smoothSolver:  Solving for Uy, Initial residual = 2.74513e-05, Final residual = 1.31143e-06, No Iterations 4
smoothSolver:  Solving for Uz, Initial residual = 2.55464e-05, Final residual = 1.14871e-06, No Iterations 4
GAMG:  Solving for p, Initial residual = 6.99698e-07, Final residual = 8.94627e-08, No Iterations 1
time step continuity errors : sum local = 0.00010284, global = -6.54185e-05, cumulative = -0.0918614
smoothSolver:  Solving for nuTilda, Initial residual = 0.000168068, Final residual = 1.31009e-05, No Iterations 2
bounding nuTilda, min: -0.00631571 max: 0.12699 average: 0.0130317
ExecutionTime = 1316.28 s  ClockTime = 1317 s

Time = 978s

smoothSolver:  Solving for Ux, Initial residual = 1.30889e-05, Final residual = 4.56041e-07, No Iterations 4
smoothSolver:  Solving for Uy, Initial residual = 2.69355e-05, Final residual = 1.28481e-06, No Iterations 4
smoothSolver:  Solving for Uz, Initial residual = 2.48236e-05, Final residual = 1.12214e-06, No Iterations 4
GAMG:  Solving for p, Initial residual = 7.12136e-07, Final residual = 3.88669e-08, No Iterations 2
time step continuity errors : sum local = 4.44973e-05, global = 2.65715e-05, cumulative = -0.0918349
smoothSolver:  Solving for nuTilda, Initial residual = 0.000167773, Final residual = 1.3103e-05, No Iterations 2
bounding nuTilda, min: -0.00630397 max: 0.127024 average: 0.0130333
ExecutionTime = 1317.44 s  ClockTime = 1318 s

Time = 979s

smoothSolver:  Solving for Ux, Initial residual = 1.30636e-05, Final residual = 4.55238e-07, No Iterations 4
smoothSolver:  Solving for Uy, Initial residual = 2.72098e-05, Final residual = 1.32718e-06, No Iterations 4
smoothSolver:  Solving for Uz, Initial residual = 2.55497e-05, Final residual = 1.14278e-06, No Iterations 4
GAMG:  Solving for p, Initial residual = 6.68656e-07, Final residual = 7.5857e-08, No Iterations 1
time step continuity errors : sum local = 8.66908e-05, global = -4.95008e-05, cumulative = -0.0918844
smoothSolver:  Solving for nuTilda, Initial residual = 0.000167377, Final residual = 1.30799e-05, No Iterations 2
bounding nuTilda, min: -0.00631726 max: 0.127059 average: 0.013036
ExecutionTime = 1318.58 s  ClockTime = 1319 s

Time = 980s

smoothSolver:  Solving for Ux, Initial residual = 1.30608e-05, Final residual = 4.54736e-07, No Iterations 4
smoothSolver:  Solving for Uy, Initial residual = 2.69165e-05, Final residual = 1.28252e-06, No Iterations 4
smoothSolver:  Solving for Uz, Initial residual = 2.49415e-05, Final residual = 1.11838e-06, No Iterations 4
GAMG:  Solving for p, Initial residual = 7.03021e-07, Final residual = 8.54744e-08, No Iterations 1
time step continuity errors : sum local = 9.70586e-05, global = -5.47762e-05, cumulative = -0.0919391
smoothSolver:  Solving for nuTilda, Initial residual = 0.000166952, Final residual = 1.3015e-05, No Iterations 2
bounding nuTilda, min: -0.00631589 max: 0.127093 average: 0.0130382
ExecutionTime = 1319.84 s  ClockTime = 1320 s

Time = 981s

smoothSolver:  Solving for Ux, Initial residual = 1.30243e-05, Final residual = 4.542e-07, No Iterations 4
smoothSolver:  Solving for Uy, Initial residual = 2.63788e-05, Final residual = 1.24686e-06, No Iterations 4
smoothSolver:  Solving for Uz, Initial residual = 2.43179e-05, Final residual = 1.09771e-06, No Iterations 4
GAMG:  Solving for p, Initial residual = 7.12898e-07, Final residual = 3.73999e-08, No Iterations 2
time step continuity errors : sum local = 4.22952e-05, global = 2.63896e-05, cumulative = -0.0919128
smoothSolver:  Solving for nuTilda, Initial residual = 0.000166675, Final residual = 1.30255e-05, No Iterations 2
bounding nuTilda, min: -0.00630379 max: 0.127127 average: 0.0130399
ExecutionTime = 1321.06 s  ClockTime = 1321 s

Time = 982s

smoothSolver:  Solving for Ux, Initial residual = 1.30011e-05, Final residual = 4.54201e-07, No Iterations 4
smoothSolver:  Solving for Uy, Initial residual = 2.70929e-05, Final residual = 1.29303e-06, No Iterations 4
smoothSolver:  Solving for Uz, Initial residual = 2.54161e-05, Final residual = 1.13979e-06, No Iterations 4
GAMG:  Solving for p, Initial residual = 6.72518e-07, Final residual = 7.70105e-08, No Iterations 1
time step continuity errors : sum local = 8.691e-05, global = -4.66947e-05, cumulative = -0.0919595
smoothSolver:  Solving for nuTilda, Initial residual = 0.000166313, Final residual = 1.29941e-05, No Iterations 2
bounding nuTilda, min: -0.00631745 max: 0.127161 average: 0.0130425
ExecutionTime = 1322.18 s  ClockTime = 1323 s

Time = 983s

smoothSolver:  Solving for Ux, Initial residual = 1.29988e-05, Final residual = 4.53372e-07, No Iterations 4
smoothSolver:  Solving for Uy, Initial residual = 2.70099e-05, Final residual = 1.26351e-06, No Iterations 4
smoothSolver:  Solving for Uz, Initial residual = 2.50906e-05, Final residual = 1.12586e-06, No Iterations 4
GAMG:  Solving for p, Initial residual = 7.05131e-07, Final residual = 8.56731e-08, No Iterations 1
time step continuity errors : sum local = 9.60739e-05, global = -5.61429e-05, cumulative = -0.0920156
smoothSolver:  Solving for nuTilda, Initial residual = 0.000165886, Final residual = 1.29396e-05, No Iterations 2
bounding nuTilda, min: -0.00631566 max: 0.127194 average: 0.0130448
ExecutionTime = 1323.37 s  ClockTime = 1324 s

Time = 984s

smoothSolver:  Solving for Ux, Initial residual = 1.29538e-05, Final residual = 4.52422e-07, No Iterations 4
smoothSolver:  Solving for Uy, Initial residual = 2.63867e-05, Final residual = 1.24269e-06, No Iterations 4
smoothSolver:  Solving for Uz, Initial residual = 2.4469e-05, Final residual = 1.1044e-06, No Iterations 4
GAMG:  Solving for p, Initial residual = 7.19323e-07, Final residual = 3.01611e-08, No Iterations 2
time step continuity errors : sum local = 3.36815e-05, global = 1.69745e-05, cumulative = -0.0919986
smoothSolver:  Solving for nuTilda, Initial residual = 0.000165604, Final residual = 1.29426e-05, No Iterations 2
bounding nuTilda, min: -0.00630393 max: 0.127228 average: 0.0130464
ExecutionTime = 1324.58 s  ClockTime = 1325 s

Time = 985s

smoothSolver:  Solving for Ux, Initial residual = 1.28957e-05, Final residual = 4.50583e-07, No Iterations 4
smoothSolver:  Solving for Uy, Initial residual = 2.64731e-05, Final residual = 1.27385e-06, No Iterations 4
smoothSolver:  Solving for Uz, Initial residual = 2.51552e-05, Final residual = 1.13022e-06, No Iterations 4
GAMG:  Solving for p, Initial residual = 6.8071e-07, Final residual = 8.14698e-08, No Iterations 1
time step continuity errors : sum local = 9.0771e-05, global = -5.58764e-05, cumulative = -0.0920545
smoothSolver:  Solving for nuTilda, Initial residual = 0.00016523, Final residual = 1.29192e-05, No Iterations 2
bounding nuTilda, min: -0.00631724 max: 0.127261 average: 0.0130491
ExecutionTime = 1325.76 s  ClockTime = 1326 s

Time = 986s

smoothSolver:  Solving for Ux, Initial residual = 1.28942e-05, Final residual = 4.49795e-07, No Iterations 4
smoothSolver:  Solving for Uy, Initial residual = 2.66039e-05, Final residual = 1.25514e-06, No Iterations 4
smoothSolver:  Solving for Uz, Initial residual = 2.47758e-05, Final residual = 1.11467e-06, No Iterations 4
GAMG:  Solving for p, Initial residual = 7.15266e-07, Final residual = 9.11441e-08, No Iterations 1
time step continuity errors : sum local = 0.000100925, global = -6.45532e-05, cumulative = -0.0921191
smoothSolver:  Solving for nuTilda, Initial residual = 0.000164843, Final residual = 1.28567e-05, No Iterations 2
bounding nuTilda, min: -0.00631588 max: 0.127294 average: 0.0130512
ExecutionTime = 1326.94 s  ClockTime = 1327 s

Time = 987s

smoothSolver:  Solving for Ux, Initial residual = 1.28604e-05, Final residual = 4.49574e-07, No Iterations 4
smoothSolver:  Solving for Uy, Initial residual = 2.62548e-05, Final residual = 1.24093e-06, No Iterations 4
smoothSolver:  Solving for Uz, Initial residual = 2.42301e-05, Final residual = 1.09717e-06, No Iterations 4
GAMG:  Solving for p, Initial residual = 7.3396e-07, Final residual = 3.85781e-08, No Iterations 2
time step continuity errors : sum local = 4.2543e-05, global = 2.53577e-05, cumulative = -0.0920937
smoothSolver:  Solving for nuTilda, Initial residual = 0.000164532, Final residual = 1.28675e-05, No Iterations 2
bounding nuTilda, min: -0.00630379 max: 0.127327 average: 0.0130529
ExecutionTime = 1328.25 s  ClockTime = 1329 s

Time = 988s

smoothSolver:  Solving for Ux, Initial residual = 1.28268e-05, Final residual = 4.49286e-07, No Iterations 4
smoothSolver:  Solving for Uy, Initial residual = 2.66149e-05, Final residual = 1.27365e-06, No Iterations 4
smoothSolver:  Solving for Uz, Initial residual = 2.50338e-05, Final residual = 1.1284e-06, No Iterations 4
GAMG:  Solving for p, Initial residual = 6.86201e-07, Final residual = 8.04978e-08, No Iterations 1
time step continuity errors : sum local = 8.86074e-05, global = -5.2594e-05, cumulative = -0.0921463
smoothSolver:  Solving for nuTilda, Initial residual = 0.000164142, Final residual = 1.28348e-05, No Iterations 2
bounding nuTilda, min: -0.00631746 max: 0.12736 average: 0.0130555
ExecutionTime = 1329.43 s  ClockTime = 1330 s

Time = 989s

smoothSolver:  Solving for Ux, Initial residual = 1.28245e-05, Final residual = 4.48952e-07, No Iterations 4
smoothSolver:  Solving for Uy, Initial residual = 2.64926e-05, Final residual = 1.24373e-06, No Iterations 4
smoothSolver:  Solving for Uz, Initial residual = 2.45947e-05, Final residual = 1.11063e-06, No Iterations 4
GAMG:  Solving for p, Initial residual = 7.21945e-07, Final residual = 8.80274e-08, No Iterations 1
time step continuity errors : sum local = 9.62843e-05, global = -5.67693e-05, cumulative = -0.0922031
smoothSolver:  Solving for nuTilda, Initial residual = 0.000163744, Final residual = 1.27814e-05, No Iterations 2
bounding nuTilda, min: -0.00631567 max: 0.127393 average: 0.0130578
ExecutionTime = 1330.66 s  ClockTime = 1331 s

Time = 990s

smoothSolver:  Solving for Ux, Initial residual = 1.27961e-05, Final residual = 4.48891e-07, No Iterations 4
smoothSolver:  Solving for Uy, Initial residual = 2.59596e-05, Final residual = 1.21881e-06, No Iterations 4
smoothSolver:  Solving for Uz, Initial residual = 2.40427e-05, Final residual = 1.09038e-06, No Iterations 4
GAMG:  Solving for p, Initial residual = 7.30984e-07, Final residual = 3.96402e-08, No Iterations 2
time step continuity errors : sum local = 4.31879e-05, global = 2.77661e-05, cumulative = -0.0921753
smoothSolver:  Solving for nuTilda, Initial residual = 0.000163464, Final residual = 1.27837e-05, No Iterations 2
bounding nuTilda, min: -0.00630393 max: 0.127426 average: 0.0130593
ExecutionTime = 1331.97 s  ClockTime = 1332 s

Time = 991s

smoothSolver:  Solving for Ux, Initial residual = 1.27689e-05, Final residual = 4.48311e-07, No Iterations 4
smoothSolver:  Solving for Uy, Initial residual = 2.61496e-05, Final residual = 1.25646e-06, No Iterations 4
smoothSolver:  Solving for Uz, Initial residual = 2.51857e-05, Final residual = 1.13551e-06, No Iterations 4
GAMG:  Solving for p, Initial residual = 6.88039e-07, Final residual = 7.72586e-08, No Iterations 1
time step continuity errors : sum local = 8.40159e-05, global = -4.54356e-05, cumulative = -0.0922207
smoothSolver:  Solving for nuTilda, Initial residual = 0.000163071, Final residual = 1.2761e-05, No Iterations 2
bounding nuTilda, min: -0.00631725 max: 0.127459 average: 0.013062
ExecutionTime = 1333.2 s  ClockTime = 1334 s

Time = 992s

smoothSolver:  Solving for Ux, Initial residual = 1.27619e-05, Final residual = 4.47645e-07, No Iterations 4
smoothSolver:  Solving for Uy, Initial residual = 2.60215e-05, Final residual = 1.22614e-06, No Iterations 4
smoothSolver:  Solving for Uz, Initial residual = 2.47982e-05, Final residual = 1.11571e-06, No Iterations 4
GAMG:  Solving for p, Initial residual = 7.18407e-07, Final residual = 8.46024e-08, No Iterations 1
time step continuity errors : sum local = 9.14387e-05, global = -5.25163e-05, cumulative = -0.0922732
smoothSolver:  Solving for nuTilda, Initial residual = 0.00016268, Final residual = 1.26985e-05, No Iterations 2
bounding nuTilda, min: -0.00631588 max: 0.127491 average: 0.0130642
ExecutionTime = 1334.33 s  ClockTime = 1335 s

Time = 993s

smoothSolver:  Solving for Ux, Initial residual = 1.27283e-05, Final residual = 4.47154e-07, No Iterations 4
smoothSolver:  Solving for Uy, Initial residual = 2.56443e-05, Final residual = 1.21248e-06, No Iterations 4
smoothSolver:  Solving for Uz, Initial residual = 2.42638e-05, Final residual = 1.09488e-06, No Iterations 4
GAMG:  Solving for p, Initial residual = 7.30668e-07, Final residual = 2.97058e-08, No Iterations 2
time step continuity errors : sum local = 3.19822e-05, global = 1.59913e-05, cumulative = -0.0922573
smoothSolver:  Solving for nuTilda, Initial residual = 0.000162401, Final residual = 1.27103e-05, No Iterations 2
bounding nuTilda, min: -0.00630378 max: 0.127523 average: 0.0130658
ExecutionTime = 1335.55 s  ClockTime = 1336 s

Time = 994s

smoothSolver:  Solving for Ux, Initial residual = 1.26817e-05, Final residual = 4.44888e-07, No Iterations 4
smoothSolver:  Solving for Uy, Initial residual = 2.59627e-05, Final residual = 1.2416e-06, No Iterations 4
smoothSolver:  Solving for Uz, Initial residual = 2.48205e-05, Final residual = 1.1155e-06, No Iterations 4
GAMG:  Solving for p, Initial residual = 6.93799e-07, Final residual = 8.12546e-08, No Iterations 1
time step continuity errors : sum local = 8.72947e-05, global = -5.29934e-05, cumulative = -0.0923102
smoothSolver:  Solving for nuTilda, Initial residual = 0.000162047, Final residual = 1.26802e-05, No Iterations 2
bounding nuTilda, min: -0.00631745 max: 0.127555 average: 0.0130684
ExecutionTime = 1336.77 s  ClockTime = 1337 s

Time = 995s

smoothSolver:  Solving for Ux, Initial residual = 1.26865e-05, Final residual = 4.43734e-07, No Iterations 4
smoothSolver:  Solving for Uy, Initial residual = 2.61346e-05, Final residual = 1.22422e-06, No Iterations 4
smoothSolver:  Solving for Uz, Initial residual = 2.45375e-05, Final residual = 1.10192e-06, No Iterations 4
GAMG:  Solving for p, Initial residual = 7.26819e-07, Final residual = 9.26935e-08, No Iterations 1
time step continuity errors : sum local = 9.90072e-05, global = -6.36342e-05, cumulative = -0.0923739
smoothSolver:  Solving for nuTilda, Initial residual = 0.000161635, Final residual = 1.26263e-05, No Iterations 2
bounding nuTilda, min: -0.00631566 max: 0.127588 average: 0.0130706
ExecutionTime = 1338.24 s  ClockTime = 1339 s

Time = 996s

smoothSolver:  Solving for Ux, Initial residual = 1.26517e-05, Final residual = 4.42616e-07, No Iterations 4
smoothSolver:  Solving for Uy, Initial residual = 2.57427e-05, Final residual = 1.21153e-06, No Iterations 4
smoothSolver:  Solving for Uz, Initial residual = 2.39917e-05, Final residual = 1.08326e-06, No Iterations 4
GAMG:  Solving for p, Initial residual = 7.46191e-07, Final residual = 3.66436e-08, No Iterations 2
time step continuity errors : sum local = 3.89859e-05, global = 2.18059e-05, cumulative = -0.0923521
smoothSolver:  Solving for nuTilda, Initial residual = 0.000161344, Final residual = 1.26288e-05, No Iterations 2
bounding nuTilda, min: -0.00630393 max: 0.127619 average: 0.0130722
ExecutionTime = 1340.06 s  ClockTime = 1340 s

Time = 997s

smoothSolver:  Solving for Ux, Initial residual = 1.26089e-05, Final residual = 4.4102e-07, No Iterations 4
smoothSolver:  Solving for Uy, Initial residual = 2.60586e-05, Final residual = 1.24346e-06, No Iterations 4
smoothSolver:  Solving for Uz, Initial residual = 2.46426e-05, Final residual = 1.10879e-06, No Iterations 4
GAMG:  Solving for p, Initial residual = 6.9719e-07, Final residual = 8.27129e-08, No Iterations 1
time step continuity errors : sum local = 8.78485e-05, global = -5.37486e-05, cumulative = -0.0924058
smoothSolver:  Solving for nuTilda, Initial residual = 0.000160949, Final residual = 1.2605e-05, No Iterations 2
bounding nuTilda, min: -0.00631725 max: 0.127651 average: 0.0130749
ExecutionTime = 1341.36 s  ClockTime = 1342 s

Time = 998s

smoothSolver:  Solving for Ux, Initial residual = 1.2607e-05, Final residual = 4.39929e-07, No Iterations 4
smoothSolver:  Solving for Uy, Initial residual = 2.59547e-05, Final residual = 1.20965e-06, No Iterations 4
smoothSolver:  Solving for Uz, Initial residual = 2.42076e-05, Final residual = 1.08872e-06, No Iterations 4
GAMG:  Solving for p, Initial residual = 7.31507e-07, Final residual = 8.97138e-08, No Iterations 1
time step continuity errors : sum local = 9.47155e-05, global = -5.77762e-05, cumulative = -0.0924636
smoothSolver:  Solving for nuTilda, Initial residual = 0.000160557, Final residual = 1.25425e-05, No Iterations 2
bounding nuTilda, min: -0.00631588 max: 0.127683 average: 0.013077
ExecutionTime = 1342.88 s  ClockTime = 1343 s

Time = 999s

smoothSolver:  Solving for Ux, Initial residual = 1.25804e-05, Final residual = 4.39604e-07, No Iterations 4
smoothSolver:  Solving for Uy, Initial residual = 2.54839e-05, Final residual = 1.18968e-06, No Iterations 4
smoothSolver:  Solving for Uz, Initial residual = 2.36707e-05, Final residual = 1.06729e-06, No Iterations 4
GAMG:  Solving for p, Initial residual = 7.4258e-07, Final residual = 4.26576e-08, No Iterations 2
time step continuity errors : sum local = 4.4869e-05, global = 2.96871e-05, cumulative = -0.0924339
smoothSolver:  Solving for nuTilda, Initial residual = 0.000160271, Final residual = 1.25543e-05, No Iterations 2
bounding nuTilda, min: -0.00630379 max: 0.127715 average: 0.0130787
ExecutionTime = 1344.58 s  ClockTime = 1345 s

Time = 1000s

smoothSolver:  Solving for Ux, Initial residual = 1.25654e-05, Final residual = 4.40333e-07, No Iterations 4
smoothSolver:  Solving for Uy, Initial residual = 2.57532e-05, Final residual = 1.23672e-06, No Iterations 4
smoothSolver:  Solving for Uz, Initial residual = 2.46701e-05, Final residual = 1.09926e-06, No Iterations 4
GAMG:  Solving for p, Initial residual = 6.97276e-07, Final residual = 7.89323e-08, No Iterations 1
time step continuity errors : sum local = 8.28914e-05, global = -4.47565e-05, cumulative = -0.0924787
smoothSolver:  Solving for nuTilda, Initial residual = 0.00015987, Final residual = 1.25216e-05, No Iterations 2
bounding nuTilda, min: -0.00631746 max: 0.127746 average: 0.0130812
ExecutionTime = 1346.02 s  ClockTime = 1346 s

End

Finalising parallel run
