/*---------------------------------------------------------------------------*\
  =========                 |
  \\      /  F ield         | OpenFOAM: The Open Source CFD Toolbox
   \\    /   O peration     | Website:  https://openfoam.org
    \\  /    A nd           | Version:  11
     \\/     M anipulation  |
\*---------------------------------------------------------------------------*/
Build  : 11-d496a603da00
Exec   : foamRun -solver incompressibleFluid -parallel
Date   : Oct 25 2023
Time   : 14:44:48
Host   : "Laptop"
PID    : 97883
I/O    : uncollated
Case   : /home/tiago/OpenFOAM/tiago-11/run/test
nProcs : 4
Slaves : 
3
(
"Laptop.97884"
"Laptop.97885"
"Laptop.97887"
)

Pstream initialised with:
    floatTransfer      : false
    nProcsSimpleSum    : 0
    commsType          : nonBlocking
    polling iterations : 0
sigFpe : Enabling floating point exception trapping (FOAM_SIGFPE).
fileModificationChecking : Monitoring run-time modified files using timeStampMaster (fileModificationSkew 10)
allowSystemOperations : Allowing user-supplied system call operations

// * * * * * * * * * * * * * * * * * * * * * * * * * * * * * * * * * * * * * //
Create time

Create mesh for time = 0

Selecting solver incompressibleFluid
Selecting viscosity model constant
Selecting turbulence model type RAS
Selecting RAS turbulence model SpalartAllmaras
Selecting patchDistMethod meshWave
RAS
{
    model           SpalartAllmaras;
    turbulence      on;
    printCoeffs     on;
    sigmaNut        0.66666;
    kappa           0.41;
    Cb1             0.1355;
    Cb2             0.622;
    Cw2             0.3;
    Cw3             2;
    Cv1             7.1;
    Cs              0.3;
}

No MRF models present


SIMPLE: Convergence criteria found
        p: tolerance 0.0001
        U: tolerance 0.0001
        nuTilda: tolerance 0.0001


SIMPLE: Operating solver in steady-state mode with 1 outer corrector
SIMPLE: Operating solver in SIMPLE mode



Starting time loop

Time = 1s

smoothSolver:  Solving for Ux, Initial residual = 1, Final residual = 2.09878e-05, No Iterations 2
smoothSolver:  Solving for Uy, Initial residual = 1, Final residual = 0.0226843, No Iterations 2
smoothSolver:  Solving for Uz, Initial residual = 1, Final residual = 0.02164, No Iterations 2
GAMG:  Solving for p, Initial residual = 1, Final residual = 0.00654947, No Iterations 11
time step continuity errors : sum local = 0.00454575, global = 0.00135972, cumulative = 0.00135972
smoothSolver:  Solving for nuTilda, Initial residual = 1, Final residual = 0.0272877, No Iterations 4
bounding nuTilda, min: -0.00104683 max: 0.0374 average: 0.000206571
ExecutionTime = 3.36186 s  ClockTime = 3 s

Time = 2s

smoothSolver:  Solving for Ux, Initial residual = 0.0940396, Final residual = 0.00636202, No Iterations 4
smoothSolver:  Solving for Uy, Initial residual = 0.231083, Final residual = 0.015263, No Iterations 4
smoothSolver:  Solving for Uz, Initial residual = 0.232458, Final residual = 0.0137483, No Iterations 4
GAMG:  Solving for p, Initial residual = 0.0122637, Final residual = 9.46887e-05, No Iterations 26
time step continuity errors : sum local = 0.00919947, global = -0.000223829, cumulative = 0.0011359
smoothSolver:  Solving for nuTilda, Initial residual = 0.162441, Final residual = 0.00521477, No Iterations 4
bounding nuTilda, min: -0.00146572 max: 0.0374 average: 0.000306676
ExecutionTime = 5.21808 s  ClockTime = 5 s

Time = 3s

smoothSolver:  Solving for Ux, Initial residual = 0.300352, Final residual = 0.0259439, No Iterations 4
smoothSolver:  Solving for Uy, Initial residual = 0.314295, Final residual = 0.0242065, No Iterations 4
smoothSolver:  Solving for Uz, Initial residual = 0.295091, Final residual = 0.0236162, No Iterations 4
GAMG:  Solving for p, Initial residual = 8.11966e-05, Final residual = 3.94323e-07, No Iterations 5
time step continuity errors : sum local = 0.0105916, global = -0.00219151, cumulative = -0.00105561
smoothSolver:  Solving for nuTilda, Initial residual = 0.0925434, Final residual = 0.0038562, No Iterations 4
bounding nuTilda, min: -0.00108409 max: 0.0374 average: 0.000395
ExecutionTime = 6.60428 s  ClockTime = 7 s

Time = 4s

smoothSolver:  Solving for Ux, Initial residual = 0.240023, Final residual = 0.0229277, No Iterations 4
smoothSolver:  Solving for Uy, Initial residual = 0.201839, Final residual = 0.0185643, No Iterations 4
smoothSolver:  Solving for Uz, Initial residual = 0.208603, Final residual = 0.0185058, No Iterations 4
GAMG:  Solving for p, Initial residual = 5.44329e-05, Final residual = 4.61542e-07, No Iterations 6
time step continuity errors : sum local = 0.0218831, global = -0.00323934, cumulative = -0.00429495
smoothSolver:  Solving for nuTilda, Initial residual = 0.0647829, Final residual = 0.00283111, No Iterations 4
bounding nuTilda, min: -0.00121209 max: 0.0375935 average: 0.000483437
ExecutionTime = 7.97566 s  ClockTime = 8 s

Time = 5s

smoothSolver:  Solving for Ux, Initial residual = 0.0798618, Final residual = 0.00671616, No Iterations 4
smoothSolver:  Solving for Uy, Initial residual = 0.146479, Final residual = 0.0114888, No Iterations 4
smoothSolver:  Solving for Uz, Initial residual = 0.142112, Final residual = 0.0118464, No Iterations 4
GAMG:  Solving for p, Initial residual = 0.000166145, Final residual = 1.1648e-06, No Iterations 6
time step continuity errors : sum local = 0.01891, global = -0.00279328, cumulative = -0.00708823
smoothSolver:  Solving for nuTilda, Initial residual = 0.0523212, Final residual = 0.00229055, No Iterations 4
bounding nuTilda, min: -0.00101572 max: 0.037753 average: 0.000576888
ExecutionTime = 9.21654 s  ClockTime = 9 s

Time = 6s

smoothSolver:  Solving for Ux, Initial residual = 0.144974, Final residual = 0.0101208, No Iterations 4
smoothSolver:  Solving for Uy, Initial residual = 0.149864, Final residual = 0.00977584, No Iterations 4
smoothSolver:  Solving for Uz, Initial residual = 0.145597, Final residual = 0.00942707, No Iterations 4
GAMG:  Solving for p, Initial residual = 0.000188662, Final residual = 1.06095e-06, No Iterations 5
time step continuity errors : sum local = 0.0136637, global = 0.00343863, cumulative = -0.00364959
smoothSolver:  Solving for nuTilda, Initial residual = 0.045081, Final residual = 0.0019121, No Iterations 4
bounding nuTilda, min: -0.00105566 max: 0.0377203 average: 0.000674329
ExecutionTime = 10.4199 s  ClockTime = 11 s

Time = 7s

smoothSolver:  Solving for Ux, Initial residual = 0.152526, Final residual = 0.0141327, No Iterations 4
smoothSolver:  Solving for Uy, Initial residual = 0.15321, Final residual = 0.0103676, No Iterations 4
smoothSolver:  Solving for Uz, Initial residual = 0.1551, Final residual = 0.0106675, No Iterations 4
GAMG:  Solving for p, Initial residual = 0.000130377, Final residual = 1.0512e-06, No Iterations 6
time step continuity errors : sum local = 0.0198017, global = 0.00304061, cumulative = -0.000608988
smoothSolver:  Solving for nuTilda, Initial residual = 0.039514, Final residual = 0.00161597, No Iterations 4
bounding nuTilda, min: -0.00103994 max: 0.0375886 average: 0.000774709
ExecutionTime = 11.8503 s  ClockTime = 12 s

Time = 8s

smoothSolver:  Solving for Ux, Initial residual = 0.0785809, Final residual = 0.00595254, No Iterations 4
smoothSolver:  Solving for Uy, Initial residual = 0.119787, Final residual = 0.00753989, No Iterations 4
smoothSolver:  Solving for Uz, Initial residual = 0.125536, Final residual = 0.00804372, No Iterations 4
GAMG:  Solving for p, Initial residual = 0.000298413, Final residual = 1.94554e-06, No Iterations 6
time step continuity errors : sum local = 0.0142843, global = 0.00224119, cumulative = 0.0016322
smoothSolver:  Solving for nuTilda, Initial residual = 0.0340401, Final residual = 0.00137363, No Iterations 4
bounding nuTilda, min: -0.00102707 max: 0.0375235 average: 0.00087392
ExecutionTime = 13.471 s  ClockTime = 14 s

Time = 9s

smoothSolver:  Solving for Ux, Initial residual = 0.101348, Final residual = 0.00578898, No Iterations 4
smoothSolver:  Solving for Uy, Initial residual = 0.113075, Final residual = 0.00573721, No Iterations 4
smoothSolver:  Solving for Uz, Initial residual = 0.117056, Final residual = 0.00555683, No Iterations 4
GAMG:  Solving for p, Initial residual = 0.000287987, Final residual = 1.39295e-06, No Iterations 5
time step continuity errors : sum local = 0.0103243, global = -0.0027316, cumulative = -0.00109939
smoothSolver:  Solving for nuTilda, Initial residual = 0.0294925, Final residual = 0.00118293, No Iterations 4
bounding nuTilda, min: -0.00102509 max: 0.0374792 average: 0.000969128
ExecutionTime = 14.8998 s  ClockTime = 15 s

Time = 10s

smoothSolver:  Solving for Ux, Initial residual = 0.086537, Final residual = 0.00677668, No Iterations 4
smoothSolver:  Solving for Uy, Initial residual = 0.1155, Final residual = 0.00642444, No Iterations 4
smoothSolver:  Solving for Uz, Initial residual = 0.118449, Final residual = 0.0065319, No Iterations 4
GAMG:  Solving for p, Initial residual = 0.000136172, Final residual = 8.33687e-07, No Iterations 5
time step continuity errors : sum local = 0.0126611, global = -0.001067, cumulative = -0.00216639
smoothSolver:  Solving for nuTilda, Initial residual = 0.0260601, Final residual = 0.00104488, No Iterations 4
bounding nuTilda, min: -0.00102732 max: 0.03752 average: 0.0010595
ExecutionTime = 16.0568 s  ClockTime = 16 s

Time = 11s

smoothSolver:  Solving for Ux, Initial residual = 0.0563926, Final residual = 0.00338918, No Iterations 4
smoothSolver:  Solving for Uy, Initial residual = 0.10281, Final residual = 0.00500885, No Iterations 4
smoothSolver:  Solving for Uz, Initial residual = 0.10423, Final residual = 0.00540521, No Iterations 4
GAMG:  Solving for p, Initial residual = 0.000182588, Final residual = 9.40406e-07, No Iterations 6
time step continuity errors : sum local = 0.010144, global = -0.00119081, cumulative = -0.0033572
smoothSolver:  Solving for nuTilda, Initial residual = 0.0234983, Final residual = 0.000940807, No Iterations 4
bounding nuTilda, min: -0.00102518 max: 0.037531 average: 0.00114286
ExecutionTime = 17.1728 s  ClockTime = 17 s

Time = 12s

smoothSolver:  Solving for Ux, Initial residual = 0.0612131, Final residual = 0.00277344, No Iterations 4
smoothSolver:  Solving for Uy, Initial residual = 0.0990472, Final residual = 0.00379132, No Iterations 4
smoothSolver:  Solving for Uz, Initial residual = 0.0964137, Final residual = 0.0037112, No Iterations 4
GAMG:  Solving for p, Initial residual = 0.00522504, Final residual = 2.04954e-05, No Iterations 5
time step continuity errors : sum local = 0.00736401, global = 0.00198814, cumulative = -0.00136905
smoothSolver:  Solving for nuTilda, Initial residual = 0.0214919, Final residual = 0.000859497, No Iterations 4
bounding nuTilda, min: -0.00102092 max: 0.0375335 average: 0.0012194
ExecutionTime = 18.3355 s  ClockTime = 18 s

Time = 13s

smoothSolver:  Solving for Ux, Initial residual = 0.0576411, Final residual = 0.00376538, No Iterations 4
smoothSolver:  Solving for Uy, Initial residual = 0.0961491, Final residual = 0.00399091, No Iterations 4
smoothSolver:  Solving for Uz, Initial residual = 0.0929805, Final residual = 0.00398369, No Iterations 4
GAMG:  Solving for p, Initial residual = 0.000837817, Final residual = 5.06335e-06, No Iterations 5
time step continuity errors : sum local = 0.0112065, global = 0.00194175, cumulative = 0.000572697
smoothSolver:  Solving for nuTilda, Initial residual = 0.0199458, Final residual = 0.000792955, No Iterations 4
bounding nuTilda, min: -0.00101785 max: 0.0375241 average: 0.0012915
ExecutionTime = 19.4813 s  ClockTime = 20 s

Time = 14s

smoothSolver:  Solving for Ux, Initial residual = 0.0482053, Final residual = 0.00219624, No Iterations 4
smoothSolver:  Solving for Uy, Initial residual = 0.0960665, Final residual = 0.00372852, No Iterations 4
smoothSolver:  Solving for Uz, Initial residual = 0.0946731, Final residual = 0.00393864, No Iterations 4
GAMG:  Solving for p, Initial residual = 0.0018548, Final residual = 7.67118e-06, No Iterations 5
time step continuity errors : sum local = 0.00712991, global = 0.00018164, cumulative = 0.000754336
smoothSolver:  Solving for nuTilda, Initial residual = 0.0185493, Final residual = 0.000736531, No Iterations 4
bounding nuTilda, min: -0.00101801 max: 0.0374989 average: 0.00136033
ExecutionTime = 20.6098 s  ClockTime = 21 s

Time = 15s

smoothSolver:  Solving for Ux, Initial residual = 0.0466413, Final residual = 0.00154413, No Iterations 4
smoothSolver:  Solving for Uy, Initial residual = 0.102309, Final residual = 0.00330175, No Iterations 4
smoothSolver:  Solving for Uz, Initial residual = 0.100498, Final residual = 0.00333093, No Iterations 4
GAMG:  Solving for p, Initial residual = 0.00169026, Final residual = 1.45705e-05, No Iterations 4
time step continuity errors : sum local = 0.0146052, global = -0.000489446, cumulative = 0.000264891
smoothSolver:  Solving for nuTilda, Initial residual = 0.0173088, Final residual = 0.000688141, No Iterations 4
bounding nuTilda, min: -0.00101999 max: 0.037509 average: 0.00142605
ExecutionTime = 21.664 s  ClockTime = 22 s

Time = 16s

smoothSolver:  Solving for Ux, Initial residual = 0.0422525, Final residual = 0.00212867, No Iterations 4
smoothSolver:  Solving for Uy, Initial residual = 0.102835, Final residual = 0.00337595, No Iterations 4
smoothSolver:  Solving for Uz, Initial residual = 0.0980502, Final residual = 0.00318998, No Iterations 4
GAMG:  Solving for p, Initial residual = 0.000782047, Final residual = 4.21533e-06, No Iterations 5
time step continuity errors : sum local = 0.00899348, global = -0.0025187, cumulative = -0.00225381
smoothSolver:  Solving for nuTilda, Initial residual = 0.0163288, Final residual = 0.000647708, No Iterations 4
bounding nuTilda, min: -0.00102014 max: 0.037509 average: 0.00148879
ExecutionTime = 22.7592 s  ClockTime = 23 s

Time = 17s

smoothSolver:  Solving for Ux, Initial residual = 0.0392947, Final residual = 0.00161573, No Iterations 4
smoothSolver:  Solving for Uy, Initial residual = 0.0969621, Final residual = 0.00312511, No Iterations 4
smoothSolver:  Solving for Uz, Initial residual = 0.0896998, Final residual = 0.00305128, No Iterations 4
GAMG:  Solving for p, Initial residual = 0.000772826, Final residual = 3.60886e-06, No Iterations 5
time step continuity errors : sum local = 0.00754264, global = -0.000663649, cumulative = -0.00291746
smoothSolver:  Solving for nuTilda, Initial residual = 0.0155083, Final residual = 0.000613351, No Iterations 4
bounding nuTilda, min: -0.00102101 max: 0.0375054 average: 0.00154896
ExecutionTime = 23.9087 s  ClockTime = 24 s

Time = 18s

smoothSolver:  Solving for Ux, Initial residual = 0.0368892, Final residual = 0.00109051, No Iterations 4
smoothSolver:  Solving for Uy, Initial residual = 0.0926365, Final residual = 0.00289717, No Iterations 4
smoothSolver:  Solving for Uz, Initial residual = 0.0836631, Final residual = 0.00280777, No Iterations 4
GAMG:  Solving for p, Initial residual = 0.00131702, Final residual = 1.09733e-05, No Iterations 4
time step continuity errors : sum local = 0.0134379, global = 0.001264, cumulative = -0.00165345
smoothSolver:  Solving for nuTilda, Initial residual = 0.0147323, Final residual = 0.000583731, No Iterations 4
bounding nuTilda, min: -0.00101975 max: 0.0374984 average: 0.00160736
ExecutionTime = 25.2273 s  ClockTime = 25 s

Time = 19s

smoothSolver:  Solving for Ux, Initial residual = 0.033482, Final residual = 0.00128944, No Iterations 4
smoothSolver:  Solving for Uy, Initial residual = 0.0951184, Final residual = 0.00308415, No Iterations 4
smoothSolver:  Solving for Uz, Initial residual = 0.0848777, Final residual = 0.00278175, No Iterations 4
GAMG:  Solving for p, Initial residual = 0.00259263, Final residual = 1.63043e-05, No Iterations 4
time step continuity errors : sum local = 0.0100981, global = 0.000643252, cumulative = -0.0010102
smoothSolver:  Solving for nuTilda, Initial residual = 0.0140027, Final residual = 0.000557683, No Iterations 4
bounding nuTilda, min: -0.00101985 max: 0.0375022 average: 0.00166421
ExecutionTime = 26.4691 s  ClockTime = 27 s

Time = 20s

smoothSolver:  Solving for Ux, Initial residual = 0.0325246, Final residual = 0.00109276, No Iterations 4
smoothSolver:  Solving for Uy, Initial residual = 0.0980471, Final residual = 0.00309328, No Iterations 4
smoothSolver:  Solving for Uz, Initial residual = 0.0879578, Final residual = 0.00288701, No Iterations 4
GAMG:  Solving for p, Initial residual = 0.00236834, Final residual = 1.46338e-05, No Iterations 4
time step continuity errors : sum local = 0.00992763, global = -4.22844e-05, cumulative = -0.00105248
smoothSolver:  Solving for nuTilda, Initial residual = 0.0133676, Final residual = 0.000534621, No Iterations 4
bounding nuTilda, min: -0.00101876 max: 0.0375141 average: 0.00171932
ExecutionTime = 27.7537 s  ClockTime = 28 s

Time = 21s

smoothSolver:  Solving for Ux, Initial residual = 0.0305969, Final residual = 0.000866137, No Iterations 4
smoothSolver:  Solving for Uy, Initial residual = 0.0958015, Final residual = 0.00274312, No Iterations 4
smoothSolver:  Solving for Uz, Initial residual = 0.0854508, Final residual = 0.00262464, No Iterations 4
GAMG:  Solving for p, Initial residual = 0.00128012, Final residual = 5.77492e-06, No Iterations 4
time step continuity errors : sum local = 0.00728579, global = -0.000875482, cumulative = -0.00192797
smoothSolver:  Solving for nuTilda, Initial residual = 0.0128589, Final residual = 0.000514527, No Iterations 4
bounding nuTilda, min: -0.00102009 max: 0.0375151 average: 0.00177263
ExecutionTime = 28.8875 s  ClockTime = 29 s

Time = 22s

smoothSolver:  Solving for Ux, Initial residual = 0.0295422, Final residual = 0.000946074, No Iterations 4
smoothSolver:  Solving for Uy, Initial residual = 0.092171, Final residual = 0.00252095, No Iterations 4
smoothSolver:  Solving for Uz, Initial residual = 0.0802473, Final residual = 0.00221285, No Iterations 4
GAMG:  Solving for p, Initial residual = 0.000856442, Final residual = 4.59276e-06, No Iterations 4
time step continuity errors : sum local = 0.00866695, global = -0.00122642, cumulative = -0.00315439
smoothSolver:  Solving for nuTilda, Initial residual = 0.0124552, Final residual = 0.000496814, No Iterations 4
bounding nuTilda, min: -0.00101925 max: 0.0375098 average: 0.00182427
ExecutionTime = 29.8965 s  ClockTime = 30 s

Time = 23s

smoothSolver:  Solving for Ux, Initial residual = 0.0293771, Final residual = 0.000938391, No Iterations 4
smoothSolver:  Solving for Uy, Initial residual = 0.0912174, Final residual = 0.00253778, No Iterations 4
smoothSolver:  Solving for Uz, Initial residual = 0.077561, Final residual = 0.00222455, No Iterations 4
GAMG:  Solving for p, Initial residual = 0.000696814, Final residual = 3.72214e-06, No Iterations 4
time step continuity errors : sum local = 0.00861526, global = -0.00115385, cumulative = -0.00430824
smoothSolver:  Solving for nuTilda, Initial residual = 0.0121038, Final residual = 0.000480999, No Iterations 4
bounding nuTilda, min: -0.00102027 max: 0.0375144 average: 0.00187475
ExecutionTime = 30.9337 s  ClockTime = 31 s

Time = 24s

smoothSolver:  Solving for Ux, Initial residual = 0.0273862, Final residual = 0.000781913, No Iterations 4
smoothSolver:  Solving for Uy, Initial residual = 0.0921789, Final residual = 0.00236452, No Iterations 4
smoothSolver:  Solving for Uz, Initial residual = 0.0769626, Final residual = 0.00213989, No Iterations 4
GAMG:  Solving for p, Initial residual = 0.00069706, Final residual = 3.17981e-06, No Iterations 4
time step continuity errors : sum local = 0.00736311, global = -0.000284912, cumulative = -0.00459315
smoothSolver:  Solving for nuTilda, Initial residual = 0.011774, Final residual = 0.000467058, No Iterations 4
bounding nuTilda, min: -0.00101931 max: 0.0375224 average: 0.00192445
ExecutionTime = 31.9614 s  ClockTime = 32 s

Time = 25s

smoothSolver:  Solving for Ux, Initial residual = 0.0258866, Final residual = 0.00072917, No Iterations 4
smoothSolver:  Solving for Uy, Initial residual = 0.0953806, Final residual = 0.00222318, No Iterations 4
smoothSolver:  Solving for Uz, Initial residual = 0.0796686, Final residual = 0.00193988, No Iterations 4
GAMG:  Solving for p, Initial residual = 0.000736396, Final residual = 4.39948e-06, No Iterations 4
time step continuity errors : sum local = 0.00960629, global = -0.000405795, cumulative = -0.00499894
smoothSolver:  Solving for nuTilda, Initial residual = 0.0114673, Final residual = 0.000453925, No Iterations 4
bounding nuTilda, min: -0.00101985 max: 0.0375232 average: 0.00197328
ExecutionTime = 32.9967 s  ClockTime = 33 s

Time = 26s

smoothSolver:  Solving for Ux, Initial residual = 0.0256425, Final residual = 0.000712289, No Iterations 4
smoothSolver:  Solving for Uy, Initial residual = 0.0967203, Final residual = 0.00224926, No Iterations 4
smoothSolver:  Solving for Uz, Initial residual = 0.0812025, Final residual = 0.00191715, No Iterations 4
GAMG:  Solving for p, Initial residual = 0.000792693, Final residual = 4.148e-06, No Iterations 4
time step continuity errors : sum local = 0.0084695, global = -0.00011625, cumulative = -0.00511519
smoothSolver:  Solving for nuTilda, Initial residual = 0.0112071, Final residual = 0.000441872, No Iterations 4
bounding nuTilda, min: -0.0010188 max: 0.0375203 average: 0.00202094
ExecutionTime = 34.1761 s  ClockTime = 34 s

Time = 27s

smoothSolver:  Solving for Ux, Initial residual = 0.0253438, Final residual = 0.000649726, No Iterations 4
smoothSolver:  Solving for Uy, Initial residual = 0.0961581, Final residual = 0.00227724, No Iterations 4
smoothSolver:  Solving for Uz, Initial residual = 0.0812179, Final residual = 0.00193611, No Iterations 4
GAMG:  Solving for p, Initial residual = 0.000769923, Final residual = 7.62235e-06, No Iterations 3
time step continuity errors : sum local = 0.0161619, global = -0.000157316, cumulative = -0.00527251
smoothSolver:  Solving for nuTilda, Initial residual = 0.0109802, Final residual = 0.000430556, No Iterations 4
bounding nuTilda, min: -0.00101983 max: 0.0375286 average: 0.00206749
ExecutionTime = 35.3993 s  ClockTime = 35 s

Time = 28s

smoothSolver:  Solving for Ux, Initial residual = 0.0245896, Final residual = 0.000586146, No Iterations 4
smoothSolver:  Solving for Uy, Initial residual = 0.0957449, Final residual = 0.00228311, No Iterations 4
smoothSolver:  Solving for Uz, Initial residual = 0.0801847, Final residual = 0.00186463, No Iterations 4
GAMG:  Solving for p, Initial residual = 0.00069605, Final residual = 2.36147e-06, No Iterations 4
time step continuity errors : sum local = 0.00553931, global = -0.000591137, cumulative = -0.00586365
smoothSolver:  Solving for nuTilda, Initial residual = 0.0107794, Final residual = 0.000420149, No Iterations 4
bounding nuTilda, min: -0.00101887 max: 0.037534 average: 0.00211319
ExecutionTime = 36.5784 s  ClockTime = 37 s

Time = 29s

smoothSolver:  Solving for Ux, Initial residual = 0.0238184, Final residual = 0.000544251, No Iterations 4
smoothSolver:  Solving for Uy, Initial residual = 0.097329, Final residual = 0.00230075, No Iterations 4
smoothSolver:  Solving for Uz, Initial residual = 0.0791943, Final residual = 0.0017678, No Iterations 4
GAMG:  Solving for p, Initial residual = 0.000588781, Final residual = 5.3869e-06, No Iterations 3
time step continuity errors : sum local = 0.0148893, global = -0.000133386, cumulative = -0.00599703
smoothSolver:  Solving for nuTilda, Initial residual = 0.0106102, Final residual = 0.000410269, No Iterations 4
bounding nuTilda, min: -0.00101998 max: 0.037534 average: 0.00215847
ExecutionTime = 37.6527 s  ClockTime = 38 s

Time = 30s

smoothSolver:  Solving for Ux, Initial residual = 0.0234144, Final residual = 0.000556501, No Iterations 4
smoothSolver:  Solving for Uy, Initial residual = 0.099661, Final residual = 0.00227453, No Iterations 4
smoothSolver:  Solving for Uz, Initial residual = 0.0809155, Final residual = 0.00179283, No Iterations 4
GAMG:  Solving for p, Initial residual = 0.000520498, Final residual = 4.12955e-06, No Iterations 3
time step continuity errors : sum local = 0.0129523, global = 0.000201156, cumulative = -0.00579588
smoothSolver:  Solving for nuTilda, Initial residual = 0.0104586, Final residual = 0.000401068, No Iterations 4
bounding nuTilda, min: -0.00101907 max: 0.0375342 average: 0.00220357
ExecutionTime = 38.7771 s  ClockTime = 39 s

Time = 31s

smoothSolver:  Solving for Ux, Initial residual = 0.0233084, Final residual = 0.000531172, No Iterations 4
smoothSolver:  Solving for Uy, Initial residual = 0.0999099, Final residual = 0.00215069, No Iterations 4
smoothSolver:  Solving for Uz, Initial residual = 0.0825917, Final residual = 0.00178103, No Iterations 4
GAMG:  Solving for p, Initial residual = 0.000489712, Final residual = 4.04021e-06, No Iterations 3
time step continuity errors : sum local = 0.0134379, global = 0.00152393, cumulative = -0.00427195
smoothSolver:  Solving for nuTilda, Initial residual = 0.0103312, Final residual = 0.000392451, No Iterations 4
bounding nuTilda, min: -0.00101992 max: 0.0375419 average: 0.00224843
ExecutionTime = 39.9858 s  ClockTime = 40 s

Time = 32s

smoothSolver:  Solving for Ux, Initial residual = 0.0235517, Final residual = 0.000491593, No Iterations 4
smoothSolver:  Solving for Uy, Initial residual = 0.0974323, Final residual = 0.00200878, No Iterations 4
smoothSolver:  Solving for Uz, Initial residual = 0.0834551, Final residual = 0.00174941, No Iterations 4
GAMG:  Solving for p, Initial residual = 0.000469873, Final residual = 4.47681e-06, No Iterations 3
time step continuity errors : sum local = 0.015231, global = 0.00222105, cumulative = -0.0020509
smoothSolver:  Solving for nuTilda, Initial residual = 0.0102162, Final residual = 0.000383931, No Iterations 4
bounding nuTilda, min: -0.00101899 max: 0.0375444 average: 0.002293
ExecutionTime = 41.0315 s  ClockTime = 41 s

Time = 33s

smoothSolver:  Solving for Ux, Initial residual = 0.023638, Final residual = 0.000492931, No Iterations 4
smoothSolver:  Solving for Uy, Initial residual = 0.094126, Final residual = 0.00189533, No Iterations 4
smoothSolver:  Solving for Uz, Initial residual = 0.0828528, Final residual = 0.00172982, No Iterations 4
GAMG:  Solving for p, Initial residual = 0.000484645, Final residual = 4.56151e-06, No Iterations 3
time step continuity errors : sum local = 0.0149124, global = 0.00236598, cumulative = 0.000315084
smoothSolver:  Solving for nuTilda, Initial residual = 0.0101183, Final residual = 0.000375858, No Iterations 4
bounding nuTilda, min: -0.00101982 max: 0.0375438 average: 0.0023374
ExecutionTime = 42.2474 s  ClockTime = 42 s

Time = 34s

smoothSolver:  Solving for Ux, Initial residual = 0.02322, Final residual = 0.000515361, No Iterations 4
smoothSolver:  Solving for Uy, Initial residual = 0.0919364, Final residual = 0.00175274, No Iterations 4
smoothSolver:  Solving for Uz, Initial residual = 0.0815172, Final residual = 0.00168484, No Iterations 4
GAMG:  Solving for p, Initial residual = 0.000482547, Final residual = 3.81627e-06, No Iterations 3
time step continuity errors : sum local = 0.0123376, global = 0.00139045, cumulative = 0.00170554
smoothSolver:  Solving for nuTilda, Initial residual = 0.0100374, Final residual = 0.000368144, No Iterations 4
bounding nuTilda, min: -0.00101886 max: 0.0375505 average: 0.00238183
ExecutionTime = 43.3389 s  ClockTime = 43 s

Time = 35s

smoothSolver:  Solving for Ux, Initial residual = 0.0222698, Final residual = 0.000487802, No Iterations 4
smoothSolver:  Solving for Uy, Initial residual = 0.090653, Final residual = 0.00890223, No Iterations 2
smoothSolver:  Solving for Uz, Initial residual = 0.0802584, Final residual = 0.00155113, No Iterations 4
GAMG:  Solving for p, Initial residual = 0.000443095, Final residual = 3.47806e-06, No Iterations 3
time step continuity errors : sum local = 0.0120688, global = -9.73262e-05, cumulative = 0.00160821
smoothSolver:  Solving for nuTilda, Initial residual = 0.00997249, Final residual = 0.000360852, No Iterations 4
bounding nuTilda, min: -0.00101983 max: 0.037555 average: 0.00242652
ExecutionTime = 44.4355 s  ClockTime = 45 s

Time = 36s

smoothSolver:  Solving for Ux, Initial residual = 0.0216364, Final residual = 0.00045067, No Iterations 4
smoothSolver:  Solving for Uy, Initial residual = 0.0915882, Final residual = 0.00909038, No Iterations 2
smoothSolver:  Solving for Uz, Initial residual = 0.0783802, Final residual = 0.0076999, No Iterations 2
GAMG:  Solving for p, Initial residual = 0.000395773, Final residual = 3.29142e-06, No Iterations 3
time step continuity errors : sum local = 0.0125766, global = -0.000480623, cumulative = 0.00112759
smoothSolver:  Solving for nuTilda, Initial residual = 0.00992911, Final residual = 0.000354221, No Iterations 4
bounding nuTilda, min: -0.00101891 max: 0.037556 average: 0.00247174
ExecutionTime = 45.4434 s  ClockTime = 46 s

Time = 37s

smoothSolver:  Solving for Ux, Initial residual = 0.02134, Final residual = 0.00043547, No Iterations 4
smoothSolver:  Solving for Uy, Initial residual = 0.091713, Final residual = 0.00187244, No Iterations 4
smoothSolver:  Solving for Uz, Initial residual = 0.0776237, Final residual = 0.00761829, No Iterations 2
GAMG:  Solving for p, Initial residual = 0.000347048, Final residual = 3.03299e-06, No Iterations 3
time step continuity errors : sum local = 0.013087, global = -0.000274367, cumulative = 0.000853219
smoothSolver:  Solving for nuTilda, Initial residual = 0.00990138, Final residual = 0.000347767, No Iterations 4
bounding nuTilda, min: -0.0010199 max: 0.0375589 average: 0.00251764
ExecutionTime = 46.5471 s  ClockTime = 47 s

Time = 38s

smoothSolver:  Solving for Ux, Initial residual = 0.0210016, Final residual = 0.000423041, No Iterations 4
smoothSolver:  Solving for Uy, Initial residual = 0.0879264, Final residual = 0.00181831, No Iterations 4
smoothSolver:  Solving for Uz, Initial residual = 0.0764436, Final residual = 0.00763781, No Iterations 2
GAMG:  Solving for p, Initial residual = 0.000311273, Final residual = 2.54258e-06, No Iterations 3
time step continuity errors : sum local = 0.0121218, global = -5.19679e-05, cumulative = 0.000801251
smoothSolver:  Solving for nuTilda, Initial residual = 0.00989027, Final residual = 0.000341663, No Iterations 4
bounding nuTilda, min: -0.00101902 max: 0.037565 average: 0.0025642
ExecutionTime = 47.6116 s  ClockTime = 48 s

Time = 39s

smoothSolver:  Solving for Ux, Initial residual = 0.0200946, Final residual = 0.000388727, No Iterations 4
smoothSolver:  Solving for Uy, Initial residual = 0.0848576, Final residual = 0.00170065, No Iterations 4
smoothSolver:  Solving for Uz, Initial residual = 0.0750009, Final residual = 0.0014421, No Iterations 4
GAMG:  Solving for p, Initial residual = 0.000286561, Final residual = 2.24426e-06, No Iterations 3
time step continuity errors : sum local = 0.0113989, global = 0.000227369, cumulative = 0.00102862
smoothSolver:  Solving for nuTilda, Initial residual = 0.00990224, Final residual = 0.000335961, No Iterations 4
bounding nuTilda, min: -0.00101989 max: 0.0375672 average: 0.0026111
ExecutionTime = 48.8077 s  ClockTime = 49 s

Time = 40s

smoothSolver:  Solving for Ux, Initial residual = 0.0188895, Final residual = 0.00185323, No Iterations 2
smoothSolver:  Solving for Uy, Initial residual = 0.0830599, Final residual = 0.00160622, No Iterations 4
smoothSolver:  Solving for Uz, Initial residual = 0.0718779, Final residual = 0.00704398, No Iterations 2
GAMG:  Solving for p, Initial residual = 0.000263685, Final residual = 2.0308e-06, No Iterations 3
time step continuity errors : sum local = 0.0107269, global = 0.000878546, cumulative = 0.00190717
smoothSolver:  Solving for nuTilda, Initial residual = 0.00991848, Final residual = 0.000330524, No Iterations 4
bounding nuTilda, min: -0.001019 max: 0.037567 average: 0.00265809
ExecutionTime = 49.9125 s  ClockTime = 50 s

Time = 41s

smoothSolver:  Solving for Ux, Initial residual = 0.0182258, Final residual = 0.00175756, No Iterations 2
smoothSolver:  Solving for Uy, Initial residual = 0.0820702, Final residual = 0.00159489, No Iterations 4
smoothSolver:  Solving for Uz, Initial residual = 0.0702651, Final residual = 0.00698128, No Iterations 2
GAMG:  Solving for p, Initial residual = 0.000248277, Final residual = 1.96267e-06, No Iterations 3
time step continuity errors : sum local = 0.0106086, global = 0.00125555, cumulative = 0.00316271
smoothSolver:  Solving for nuTilda, Initial residual = 0.00994756, Final residual = 0.000324965, No Iterations 4
bounding nuTilda, min: -0.00101985 max: 0.0375737 average: 0.00270495
ExecutionTime = 51.093 s  ClockTime = 51 s

Time = 42s

smoothSolver:  Solving for Ux, Initial residual = 0.0179292, Final residual = 0.00172707, No Iterations 2
smoothSolver:  Solving for Uy, Initial residual = 0.0816516, Final residual = 0.00161879, No Iterations 4
smoothSolver:  Solving for Uz, Initial residual = 0.069555, Final residual = 0.00132866, No Iterations 4
GAMG:  Solving for p, Initial residual = 0.000243306, Final residual = 1.80003e-06, No Iterations 3
time step continuity errors : sum local = 0.00980037, global = 0.00104155, cumulative = 0.00420426
smoothSolver:  Solving for nuTilda, Initial residual = 0.00998703, Final residual = 0.000319425, No Iterations 4
bounding nuTilda, min: -0.00101892 max: 0.0375769 average: 0.00275175
ExecutionTime = 52.2052 s  ClockTime = 52 s

Time = 43s

smoothSolver:  Solving for Ux, Initial residual = 0.0177081, Final residual = 0.00170798, No Iterations 2
smoothSolver:  Solving for Uy, Initial residual = 0.0802913, Final residual = 0.00160555, No Iterations 4
smoothSolver:  Solving for Uz, Initial residual = 0.0678725, Final residual = 0.00668376, No Iterations 2
GAMG:  Solving for p, Initial residual = 0.000234117, Final residual = 1.72557e-06, No Iterations 3
time step continuity errors : sum local = 0.00958882, global = 0.000909867, cumulative = 0.00511413
smoothSolver:  Solving for nuTilda, Initial residual = 0.0100384, Final residual = 0.000314116, No Iterations 4
bounding nuTilda, min: -0.00101985 max: 0.0375777 average: 0.00279859
ExecutionTime = 53.254 s  ClockTime = 53 s

Time = 44s

smoothSolver:  Solving for Ux, Initial residual = 0.0172395, Final residual = 0.00165435, No Iterations 2
smoothSolver:  Solving for Uy, Initial residual = 0.0787383, Final residual = 0.00156208, No Iterations 4
smoothSolver:  Solving for Uz, Initial residual = 0.0672598, Final residual = 0.00654465, No Iterations 2
GAMG:  Solving for p, Initial residual = 0.000220944, Final residual = 1.65683e-06, No Iterations 3
time step continuity errors : sum local = 0.00952221, global = 0.000689526, cumulative = 0.00580366
smoothSolver:  Solving for nuTilda, Initial residual = 0.0100935, Final residual = 0.000308571, No Iterations 4
bounding nuTilda, min: -0.00101891 max: 0.0375814 average: 0.0028458
ExecutionTime = 54.1897 s  ClockTime = 54 s

Time = 45s

smoothSolver:  Solving for Ux, Initial residual = 0.0166314, Final residual = 0.00160712, No Iterations 2
smoothSolver:  Solving for Uy, Initial residual = 0.0773602, Final residual = 0.00151389, No Iterations 4
smoothSolver:  Solving for Uz, Initial residual = 0.0662535, Final residual = 0.00644834, No Iterations 2
GAMG:  Solving for p, Initial residual = 0.000204768, Final residual = 1.47855e-06, No Iterations 3
time step continuity errors : sum local = 0.00885445, global = 0.000179118, cumulative = 0.00598277
smoothSolver:  Solving for nuTilda, Initial residual = 0.0101598, Final residual = 0.000303071, No Iterations 4
bounding nuTilda, min: -0.00101985 max: 0.0375856 average: 0.00289367
ExecutionTime = 55.1916 s  ClockTime = 55 s

Time = 46s

smoothSolver:  Solving for Ux, Initial residual = 0.0161431, Final residual = 0.00154646, No Iterations 2
smoothSolver:  Solving for Uy, Initial residual = 0.0762245, Final residual = 0.00146799, No Iterations 4
smoothSolver:  Solving for Uz, Initial residual = 0.0646147, Final residual = 0.00635948, No Iterations 2
GAMG:  Solving for p, Initial residual = 0.000188528, Final residual = 1.30736e-06, No Iterations 3
time step continuity errors : sum local = 0.00822353, global = -0.00023086, cumulative = 0.00575191
smoothSolver:  Solving for nuTilda, Initial residual = 0.0102307, Final residual = 0.000297925, No Iterations 4
bounding nuTilda, min: -0.00101893 max: 0.0375872 average: 0.00294263
ExecutionTime = 56.1366 s  ClockTime = 56 s

Time = 47s

smoothSolver:  Solving for Ux, Initial residual = 0.0158982, Final residual = 0.00153314, No Iterations 2
smoothSolver:  Solving for Uy, Initial residual = 0.0750786, Final residual = 0.00741453, No Iterations 2
smoothSolver:  Solving for Uz, Initial residual = 0.0628324, Final residual = 0.0012017, No Iterations 4
GAMG:  Solving for p, Initial residual = 0.000170784, Final residual = 1.23637e-06, No Iterations 3
time step continuity errors : sum local = 0.00824031, global = -0.000283272, cumulative = 0.00546864
smoothSolver:  Solving for nuTilda, Initial residual = 0.0103048, Final residual = 0.000292907, No Iterations 4
bounding nuTilda, min: -0.00101986 max: 0.0375882 average: 0.00299285
ExecutionTime = 57.0902 s  ClockTime = 57 s

Time = 48s

smoothSolver:  Solving for Ux, Initial residual = 0.0155439, Final residual = 0.00153927, No Iterations 2
smoothSolver:  Solving for Uy, Initial residual = 0.0751705, Final residual = 0.00743923, No Iterations 2
smoothSolver:  Solving for Uz, Initial residual = 0.0601606, Final residual = 0.00594896, No Iterations 2
GAMG:  Solving for p, Initial residual = 0.00015505, Final residual = 1.15474e-06, No Iterations 3
time step continuity errors : sum local = 0.00809968, global = -0.000196676, cumulative = 0.00527197
smoothSolver:  Solving for nuTilda, Initial residual = 0.010394, Final residual = 0.00028808, No Iterations 4
bounding nuTilda, min: -0.00101898 max: 0.037593 average: 0.0030443
ExecutionTime = 58.0318 s  ClockTime = 58 s

Time = 49s

smoothSolver:  Solving for Ux, Initial residual = 0.0150487, Final residual = 0.00149776, No Iterations 2
smoothSolver:  Solving for Uy, Initial residual = 0.0745811, Final residual = 0.00738954, No Iterations 2
smoothSolver:  Solving for Uz, Initial residual = 0.0595021, Final residual = 0.00589003, No Iterations 2
GAMG:  Solving for p, Initial residual = 0.000143301, Final residual = 1.10146e-06, No Iterations 3
time step continuity errors : sum local = 0.00800116, global = -4.88599e-05, cumulative = 0.00522311
smoothSolver:  Solving for nuTilda, Initial residual = 0.0104946, Final residual = 0.000283409, No Iterations 4
bounding nuTilda, min: -0.00101989 max: 0.0375953 average: 0.00309676
ExecutionTime = 59.0342 s  ClockTime = 59 s

Time = 50s

smoothSolver:  Solving for Ux, Initial residual = 0.0145538, Final residual = 0.0014335, No Iterations 2
smoothSolver:  Solving for Uy, Initial residual = 0.0734841, Final residual = 0.0073344, No Iterations 2
smoothSolver:  Solving for Uz, Initial residual = 0.0589902, Final residual = 0.00588723, No Iterations 2
GAMG:  Solving for p, Initial residual = 0.000133517, Final residual = 1.02904e-06, No Iterations 3
time step continuity errors : sum local = 0.00764635, global = 5.63338e-05, cumulative = 0.00527944
smoothSolver:  Solving for nuTilda, Initial residual = 0.010606, Final residual = 0.000278641, No Iterations 4
bounding nuTilda, min: -0.00101899 max: 0.037596 average: 0.00314989
ExecutionTime = 59.9842 s  ClockTime = 60 s

Time = 51s

smoothSolver:  Solving for Ux, Initial residual = 0.0141662, Final residual = 0.00138174, No Iterations 2
smoothSolver:  Solving for Uy, Initial residual = 0.0721724, Final residual = 0.00143484, No Iterations 4
smoothSolver:  Solving for Uz, Initial residual = 0.0584407, Final residual = 0.00117008, No Iterations 4
GAMG:  Solving for p, Initial residual = 0.000128006, Final residual = 1.0285e-06, No Iterations 3
time step continuity errors : sum local = 0.00774807, global = -3.24171e-05, cumulative = 0.00524702
smoothSolver:  Solving for nuTilda, Initial residual = 0.0107154, Final residual = 0.000274073, No Iterations 4
bounding nuTilda, min: -0.00101988 max: 0.0382504 average: 0.00320349
ExecutionTime = 61.0608 s  ClockTime = 61 s

Time = 52s

smoothSolver:  Solving for Ux, Initial residual = 0.0138935, Final residual = 0.00137451, No Iterations 2
smoothSolver:  Solving for Uy, Initial residual = 0.0697287, Final residual = 0.00688554, No Iterations 2
smoothSolver:  Solving for Uz, Initial residual = 0.0566476, Final residual = 0.00112876, No Iterations 4
GAMG:  Solving for p, Initial residual = 0.000122772, Final residual = 1.053e-06, No Iterations 3
time step continuity errors : sum local = 0.00802465, global = -0.000149764, cumulative = 0.00509726
smoothSolver:  Solving for nuTilda, Initial residual = 0.0108262, Final residual = 0.000269611, No Iterations 4
bounding nuTilda, min: -0.00101896 max: 0.039253 average: 0.00325781
ExecutionTime = 62.1574 s  ClockTime = 62 s

Time = 53s

smoothSolver:  Solving for Ux, Initial residual = 0.0135374, Final residual = 0.000274639, No Iterations 4
smoothSolver:  Solving for Uy, Initial residual = 0.0691964, Final residual = 0.00687948, No Iterations 2
smoothSolver:  Solving for Uz, Initial residual = 0.0546652, Final residual = 0.00106187, No Iterations 4
GAMG:  Solving for p, Initial residual = 0.000117587, Final residual = 1.09907e-06, No Iterations 3
time step continuity errors : sum local = 0.00845674, global = -0.000347294, cumulative = 0.00474996
smoothSolver:  Solving for nuTilda, Initial residual = 0.0109222, Final residual = 0.000264659, No Iterations 4
bounding nuTilda, min: -0.00101986 max: 0.0401075 average: 0.00331309
ExecutionTime = 63.3378 s  ClockTime = 63 s

Time = 54s

smoothSolver:  Solving for Ux, Initial residual = 0.0129634, Final residual = 0.000266384, No Iterations 4
smoothSolver:  Solving for Uy, Initial residual = 0.0689636, Final residual = 0.00133897, No Iterations 4
smoothSolver:  Solving for Uz, Initial residual = 0.0535376, Final residual = 0.00103, No Iterations 4
GAMG:  Solving for p, Initial residual = 0.000112142, Final residual = 1.06833e-06, No Iterations 3
time step continuity errors : sum local = 0.00833825, global = -0.000474892, cumulative = 0.00427507
smoothSolver:  Solving for nuTilda, Initial residual = 0.0110145, Final residual = 0.000259904, No Iterations 4
bounding nuTilda, min: -0.00101893 max: 0.0408591 average: 0.00336997
ExecutionTime = 64.473 s  ClockTime = 65 s

Time = 55s

smoothSolver:  Solving for Ux, Initial residual = 0.0124875, Final residual = 0.000253519, No Iterations 4
smoothSolver:  Solving for Uy, Initial residual = 0.0668723, Final residual = 0.00130956, No Iterations 4
smoothSolver:  Solving for Uz, Initial residual = 0.0524042, Final residual = 0.00102705, No Iterations 4
GAMG:  Solving for p, Initial residual = 0.000106263, Final residual = 9.70956e-07, No Iterations 3
time step continuity errors : sum local = 0.00779193, global = -0.000490365, cumulative = 0.00378471
smoothSolver:  Solving for nuTilda, Initial residual = 0.0111085, Final residual = 0.000255453, No Iterations 4
bounding nuTilda, min: -0.00101985 max: 0.0415317 average: 0.0034289
ExecutionTime = 65.5063 s  ClockTime = 66 s

Time = 56s

smoothSolver:  Solving for Ux, Initial residual = 0.0120917, Final residual = 0.000238396, No Iterations 4
smoothSolver:  Solving for Uy, Initial residual = 0.0643349, Final residual = 0.00124884, No Iterations 4
smoothSolver:  Solving for Uz, Initial residual = 0.0505558, Final residual = 0.00101077, No Iterations 4
GAMG:  Solving for p, Initial residual = 0.000101529, Final residual = 9.05603e-07, No Iterations 3
time step continuity errors : sum local = 0.00747566, global = -0.000345766, cumulative = 0.00343894
smoothSolver:  Solving for nuTilda, Initial residual = 0.0111987, Final residual = 0.000251212, No Iterations 4
bounding nuTilda, min: -0.00101894 max: 0.0421559 average: 0.00348999
ExecutionTime = 66.8892 s  ClockTime = 67 s

Time = 57s

smoothSolver:  Solving for Ux, Initial residual = 0.0116981, Final residual = 0.000233673, No Iterations 4
smoothSolver:  Solving for Uy, Initial residual = 0.0621994, Final residual = 0.00118721, No Iterations 4
smoothSolver:  Solving for Uz, Initial residual = 0.0487463, Final residual = 0.000972003, No Iterations 4
GAMG:  Solving for p, Initial residual = 9.82921e-05, Final residual = 8.50459e-07, No Iterations 3
time step continuity errors : sum local = 0.00716579, global = -0.000206945, cumulative = 0.003232
smoothSolver:  Solving for nuTilda, Initial residual = 0.0112893, Final residual = 0.000247048, No Iterations 4
bounding nuTilda, min: -0.00101986 max: 0.042778 average: 0.00355321
ExecutionTime = 68.3291 s  ClockTime = 68 s

Time = 58s

smoothSolver:  Solving for Ux, Initial residual = 0.0112726, Final residual = 0.000231208, No Iterations 4
smoothSolver:  Solving for Uy, Initial residual = 0.0605931, Final residual = 0.00115325, No Iterations 4
smoothSolver:  Solving for Uz, Initial residual = 0.0474621, Final residual = 0.000952838, No Iterations 4
GAMG:  Solving for p, Initial residual = 9.58627e-05, Final residual = 7.80793e-07, No Iterations 3
time step continuity errors : sum local = 0.00667308, global = -0.000167507, cumulative = 0.00306449
smoothSolver:  Solving for nuTilda, Initial residual = 0.0113847, Final residual = 0.000242826, No Iterations 4
bounding nuTilda, min: -0.00101895 max: 0.0440689 average: 0.00361822
ExecutionTime = 69.6618 s  ClockTime = 70 s

Time = 59s

smoothSolver:  Solving for Ux, Initial residual = 0.0108361, Final residual = 0.000223402, No Iterations 4
smoothSolver:  Solving for Uy, Initial residual = 0.0594072, Final residual = 0.00114692, No Iterations 4
smoothSolver:  Solving for Uz, Initial residual = 0.0466605, Final residual = 0.000942664, No Iterations 4
GAMG:  Solving for p, Initial residual = 9.35905e-05, Final residual = 7.69762e-07, No Iterations 3
time step continuity errors : sum local = 0.00665388, global = -4.94019e-05, cumulative = 0.00301509
smoothSolver:  Solving for nuTilda, Initial residual = 0.0114678, Final residual = 0.000238775, No Iterations 4
bounding nuTilda, min: -0.00101987 max: 0.045506 average: 0.00368481
ExecutionTime = 71.0299 s  ClockTime = 71 s

Time = 60s

smoothSolver:  Solving for Ux, Initial residual = 0.0104446, Final residual = 0.000212055, No Iterations 4
smoothSolver:  Solving for Uy, Initial residual = 0.058112, Final residual = 0.00115641, No Iterations 4
smoothSolver:  Solving for Uz, Initial residual = 0.0461688, Final residual = 0.000929416, No Iterations 4
GAMG:  Solving for p, Initial residual = 9.08627e-05, Final residual = 7.80148e-07, No Iterations 3
time step continuity errors : sum local = 0.00675561, global = 0.000134177, cumulative = 0.00314926
smoothSolver:  Solving for nuTilda, Initial residual = 0.0115432, Final residual = 0.000234834, No Iterations 4
bounding nuTilda, min: -0.00101897 max: 0.046813 average: 0.00375286
ExecutionTime = 72.3947 s  ClockTime = 72 s

Time = 61s

smoothSolver:  Solving for Ux, Initial residual = 0.0101642, Final residual = 0.00020267, No Iterations 4
smoothSolver:  Solving for Uy, Initial residual = 0.0566744, Final residual = 0.00115638, No Iterations 4
smoothSolver:  Solving for Uz, Initial residual = 0.04545, Final residual = 0.00090048, No Iterations 4
GAMG:  Solving for p, Initial residual = 8.77379e-05, Final residual = 8.03752e-07, No Iterations 3
time step continuity errors : sum local = 0.00696074, global = 0.000213042, cumulative = 0.00336231
smoothSolver:  Solving for nuTilda, Initial residual = 0.0116095, Final residual = 0.00023093, No Iterations 4
bounding nuTilda, min: -0.00101988 max: 0.048091 average: 0.00382273
ExecutionTime = 73.5004 s  ClockTime = 74 s

Time = 62s

smoothSolver:  Solving for Ux, Initial residual = 0.00992014, Final residual = 0.000195434, No Iterations 4
smoothSolver:  Solving for Uy, Initial residual = 0.0553996, Final residual = 0.0011589, No Iterations 4
smoothSolver:  Solving for Uz, Initial residual = 0.0446239, Final residual = 0.000878502, No Iterations 4
GAMG:  Solving for p, Initial residual = 8.5276e-05, Final residual = 7.83186e-07, No Iterations 3
time step continuity errors : sum local = 0.00676087, global = 9.49697e-05, cumulative = 0.00345728
smoothSolver:  Solving for nuTilda, Initial residual = 0.0116697, Final residual = 0.000226975, No Iterations 4
bounding nuTilda, min: -0.00101896 max: 0.0493423 average: 0.00389474
ExecutionTime = 74.506 s  ClockTime = 75 s

Time = 63s

smoothSolver:  Solving for Ux, Initial residual = 0.00965128, Final residual = 0.000186764, No Iterations 4
smoothSolver:  Solving for Uy, Initial residual = 0.0546001, Final residual = 0.00115069, No Iterations 4
smoothSolver:  Solving for Uz, Initial residual = 0.0439319, Final residual = 0.000875147, No Iterations 4
GAMG:  Solving for p, Initial residual = 8.2478e-05, Final residual = 7.49268e-07, No Iterations 3
time step continuity errors : sum local = 0.00644987, global = -0.000168932, cumulative = 0.00328834
smoothSolver:  Solving for nuTilda, Initial residual = 0.0117242, Final residual = 0.000223055, No Iterations 4
bounding nuTilda, min: -0.00101987 max: 0.050465 average: 0.00396909
ExecutionTime = 75.4448 s  ClockTime = 76 s

Time = 64s

smoothSolver:  Solving for Ux, Initial residual = 0.00936739, Final residual = 0.000178827, No Iterations 4
smoothSolver:  Solving for Uy, Initial residual = 0.0540109, Final residual = 0.00111403, No Iterations 4
smoothSolver:  Solving for Uz, Initial residual = 0.0431708, Final residual = 0.000851009, No Iterations 4
GAMG:  Solving for p, Initial residual = 7.87158e-05, Final residual = 7.37046e-07, No Iterations 3
time step continuity errors : sum local = 0.00634509, global = -0.00030149, cumulative = 0.00298685
smoothSolver:  Solving for nuTilda, Initial residual = 0.0117636, Final residual = 0.000219196, No Iterations 4
bounding nuTilda, min: -0.00101895 max: 0.0514741 average: 0.00404571
ExecutionTime = 76.4137 s  ClockTime = 77 s

Time = 65s

smoothSolver:  Solving for Ux, Initial residual = 0.00910647, Final residual = 0.000170964, No Iterations 4
smoothSolver:  Solving for Uy, Initial residual = 0.053394, Final residual = 0.00106396, No Iterations 4
smoothSolver:  Solving for Uz, Initial residual = 0.042253, Final residual = 0.000816018, No Iterations 4
GAMG:  Solving for p, Initial residual = 7.56409e-05, Final residual = 6.84839e-07, No Iterations 3
time step continuity errors : sum local = 0.00592228, global = -0.000264599, cumulative = 0.00272226
smoothSolver:  Solving for nuTilda, Initial residual = 0.0117939, Final residual = 0.000215198, No Iterations 4
bounding nuTilda, min: -0.00101987 max: 0.0523954 average: 0.00412427
ExecutionTime = 77.3969 s  ClockTime = 77 s

Time = 66s

smoothSolver:  Solving for Ux, Initial residual = 0.0088494, Final residual = 0.00016319, No Iterations 4
smoothSolver:  Solving for Uy, Initial residual = 0.0523059, Final residual = 0.00103776, No Iterations 4
smoothSolver:  Solving for Uz, Initial residual = 0.0411336, Final residual = 0.000792016, No Iterations 4
GAMG:  Solving for p, Initial residual = 7.38281e-05, Final residual = 6.26704e-07, No Iterations 3
time step continuity errors : sum local = 0.0054706, global = -0.000107871, cumulative = 0.00261438
smoothSolver:  Solving for nuTilda, Initial residual = 0.0118183, Final residual = 0.000210947, No Iterations 4
bounding nuTilda, min: -0.00101894 max: 0.0532441 average: 0.00420443
ExecutionTime = 78.4644 s  ClockTime = 79 s

Time = 67s

smoothSolver:  Solving for Ux, Initial residual = 0.00856561, Final residual = 0.000157685, No Iterations 4
smoothSolver:  Solving for Uy, Initial residual = 0.050955, Final residual = 0.00104023, No Iterations 4
smoothSolver:  Solving for Uz, Initial residual = 0.0399554, Final residual = 0.00077001, No Iterations 4
GAMG:  Solving for p, Initial residual = 7.26116e-05, Final residual = 5.90747e-07, No Iterations 3
time step continuity errors : sum local = 0.00518563, global = 0.000138597, cumulative = 0.00275298
smoothSolver:  Solving for nuTilda, Initial residual = 0.0118349, Final residual = 0.000206364, No Iterations 4
bounding nuTilda, min: -0.00101986 max: 0.0540393 average: 0.00428611
ExecutionTime = 79.4745 s  ClockTime = 80 s

Time = 68s

smoothSolver:  Solving for Ux, Initial residual = 0.00827707, Final residual = 0.000152381, No Iterations 4
smoothSolver:  Solving for Uy, Initial residual = 0.0493941, Final residual = 0.00103218, No Iterations 4
smoothSolver:  Solving for Uz, Initial residual = 0.0389251, Final residual = 0.000743982, No Iterations 4
GAMG:  Solving for p, Initial residual = 7.04177e-05, Final residual = 5.74426e-07, No Iterations 3
time step continuity errors : sum local = 0.00505481, global = 0.000338197, cumulative = 0.00309118
smoothSolver:  Solving for nuTilda, Initial residual = 0.0118331, Final residual = 0.000201544, No Iterations 4
bounding nuTilda, min: -0.00101895 max: 0.0547871 average: 0.00436897
ExecutionTime = 80.3754 s  ClockTime = 80 s

Time = 69s

smoothSolver:  Solving for Ux, Initial residual = 0.0079983, Final residual = 0.000147377, No Iterations 4
smoothSolver:  Solving for Uy, Initial residual = 0.0476791, Final residual = 0.00100217, No Iterations 4
smoothSolver:  Solving for Uz, Initial residual = 0.0380936, Final residual = 0.000716368, No Iterations 4
GAMG:  Solving for p, Initial residual = 6.8875e-05, Final residual = 5.79561e-07, No Iterations 3
time step continuity errors : sum local = 0.00501324, global = 0.000413413, cumulative = 0.00350459
smoothSolver:  Solving for nuTilda, Initial residual = 0.0118093, Final residual = 0.0011737, No Iterations 2
bounding nuTilda, min: -0.00101973 max: 0.055494 average: 0.00444523
ExecutionTime = 81.3552 s  ClockTime = 81 s

Time = 70s

smoothSolver:  Solving for Ux, Initial residual = 0.00773407, Final residual = 0.000141171, No Iterations 4
smoothSolver:  Solving for Uy, Initial residual = 0.0459882, Final residual = 0.000953579, No Iterations 4
smoothSolver:  Solving for Uz, Initial residual = 0.0372032, Final residual = 0.000681969, No Iterations 4
GAMG:  Solving for p, Initial residual = 6.75412e-05, Final residual = 5.59812e-07, No Iterations 3
time step continuity errors : sum local = 0.00479586, global = 0.000388589, cumulative = 0.00389318
smoothSolver:  Solving for nuTilda, Initial residual = 0.0117734, Final residual = 0.00115953, No Iterations 2
bounding nuTilda, min: -0.00101909 max: 0.0562132 average: 0.00452198
ExecutionTime = 82.3435 s  ClockTime = 82 s

Time = 71s

smoothSolver:  Solving for Ux, Initial residual = 0.00750652, Final residual = 0.000133614, No Iterations 4
smoothSolver:  Solving for Uy, Initial residual = 0.0442404, Final residual = 0.000895571, No Iterations 4
smoothSolver:  Solving for Uz, Initial residual = 0.0362187, Final residual = 0.000646198, No Iterations 4
GAMG:  Solving for p, Initial residual = 6.58542e-05, Final residual = 5.13447e-07, No Iterations 3
time step continuity errors : sum local = 0.00437308, global = 0.000302836, cumulative = 0.00419602
smoothSolver:  Solving for nuTilda, Initial residual = 0.0117197, Final residual = 0.00114286, No Iterations 2
bounding nuTilda, min: -0.00102011 max: 0.0569867 average: 0.00459922
ExecutionTime = 83.3178 s  ClockTime = 83 s

Time = 72s

smoothSolver:  Solving for Ux, Initial residual = 0.00727539, Final residual = 0.000126593, No Iterations 4
smoothSolver:  Solving for Uy, Initial residual = 0.0424801, Final residual = 0.000834665, No Iterations 4
smoothSolver:  Solving for Uz, Initial residual = 0.0353444, Final residual = 0.000617826, No Iterations 4
GAMG:  Solving for p, Initial residual = 6.43059e-05, Final residual = 4.80831e-07, No Iterations 3
time step continuity errors : sum local = 0.00408644, global = 0.00017432, cumulative = 0.00437034
smoothSolver:  Solving for nuTilda, Initial residual = 0.0116601, Final residual = 0.00112669, No Iterations 2
bounding nuTilda, min: -0.00101934 max: 0.0581549 average: 0.00467709
ExecutionTime = 84.2623 s  ClockTime = 84 s

Time = 73s

smoothSolver:  Solving for Ux, Initial residual = 0.0070436, Final residual = 0.000121618, No Iterations 4
smoothSolver:  Solving for Uy, Initial residual = 0.040778, Final residual = 0.000792485, No Iterations 4
smoothSolver:  Solving for Uz, Initial residual = 0.0345776, Final residual = 0.000596401, No Iterations 4
GAMG:  Solving for p, Initial residual = 6.2499e-05, Final residual = 4.69217e-07, No Iterations 3
time step continuity errors : sum local = 0.00399077, global = 7.25549e-05, cumulative = 0.00444289
smoothSolver:  Solving for nuTilda, Initial residual = 0.0115916, Final residual = 0.00110935, No Iterations 2
bounding nuTilda, min: -0.00102029 max: 0.0590627 average: 0.00475569
ExecutionTime = 85.2146 s  ClockTime = 85 s

Time = 74s

smoothSolver:  Solving for Ux, Initial residual = 0.00681051, Final residual = 0.000116924, No Iterations 4
smoothSolver:  Solving for Uy, Initial residual = 0.0392925, Final residual = 0.000767852, No Iterations 4
smoothSolver:  Solving for Uz, Initial residual = 0.0338152, Final residual = 0.000586876, No Iterations 4
GAMG:  Solving for p, Initial residual = 6.11376e-05, Final residual = 4.55758e-07, No Iterations 3
time step continuity errors : sum local = 0.00388642, global = 1.89566e-05, cumulative = 0.00446185
smoothSolver:  Solving for nuTilda, Initial residual = 0.0115131, Final residual = 0.00109132, No Iterations 2
bounding nuTilda, min: -0.00101942 max: 0.0600419 average: 0.00483514
ExecutionTime = 86.2075 s  ClockTime = 86 s

Time = 75s

smoothSolver:  Solving for Ux, Initial residual = 0.00657585, Final residual = 0.000111302, No Iterations 4
smoothSolver:  Solving for Uy, Initial residual = 0.0382091, Final residual = 0.000769887, No Iterations 4
smoothSolver:  Solving for Uz, Initial residual = 0.032896, Final residual = 0.000568097, No Iterations 4
GAMG:  Solving for p, Initial residual = 5.99689e-05, Final residual = 4.30146e-07, No Iterations 3
time step continuity errors : sum local = 0.0036822, global = 4.21968e-05, cumulative = 0.00450405
smoothSolver:  Solving for nuTilda, Initial residual = 0.0114277, Final residual = 0.00107267, No Iterations 2
bounding nuTilda, min: -0.00102029 max: 0.0610038 average: 0.00491532
ExecutionTime = 87.1535 s  ClockTime = 87 s

Time = 76s

smoothSolver:  Solving for Ux, Initial residual = 0.00635268, Final residual = 0.000106033, No Iterations 4
smoothSolver:  Solving for Uy, Initial residual = 0.0371987, Final residual = 0.000769931, No Iterations 4
smoothSolver:  Solving for Uz, Initial residual = 0.031961, Final residual = 0.000541629, No Iterations 4
GAMG:  Solving for p, Initial residual = 5.90796e-05, Final residual = 4.14063e-07, No Iterations 3
time step continuity errors : sum local = 0.00350702, global = 0.000119586, cumulative = 0.00462363
smoothSolver:  Solving for nuTilda, Initial residual = 0.0113456, Final residual = 0.00105252, No Iterations 2
bounding nuTilda, min: -0.00101939 max: 0.0619694 average: 0.00499584
ExecutionTime = 88.1232 s  ClockTime = 88 s

Time = 77s

smoothSolver:  Solving for Ux, Initial residual = 0.00616752, Final residual = 0.000102412, No Iterations 4
smoothSolver:  Solving for Uy, Initial residual = 0.0360823, Final residual = 0.00074421, No Iterations 4
smoothSolver:  Solving for Uz, Initial residual = 0.0311131, Final residual = 0.000525197, No Iterations 4
GAMG:  Solving for p, Initial residual = 5.76662e-05, Final residual = 4.20195e-07, No Iterations 3
time step continuity errors : sum local = 0.00351139, global = 0.000180299, cumulative = 0.00480393
smoothSolver:  Solving for nuTilda, Initial residual = 0.0112478, Final residual = 0.00103144, No Iterations 2
bounding nuTilda, min: -0.00102021 max: 0.0629466 average: 0.00507634
ExecutionTime = 89.067 s  ClockTime = 89 s

Time = 78s

smoothSolver:  Solving for Ux, Initial residual = 0.00600704, Final residual = 0.000100513, No Iterations 4
smoothSolver:  Solving for Uy, Initial residual = 0.0350102, Final residual = 0.000705691, No Iterations 4
smoothSolver:  Solving for Uz, Initial residual = 0.0303762, Final residual = 0.000522472, No Iterations 4
GAMG:  Solving for p, Initial residual = 5.59566e-05, Final residual = 4.0976e-07, No Iterations 3
time step continuity errors : sum local = 0.00337376, global = 0.000190215, cumulative = 0.00499415
smoothSolver:  Solving for nuTilda, Initial residual = 0.0111469, Final residual = 0.00101128, No Iterations 2
bounding nuTilda, min: -0.00101932 max: 0.0638218 average: 0.00515664
ExecutionTime = 90.0625 s  ClockTime = 90 s

Time = 79s

smoothSolver:  Solving for Ux, Initial residual = 0.00584948, Final residual = 9.99525e-05, No Iterations 4
smoothSolver:  Solving for Uy, Initial residual = 0.0339665, Final residual = 0.000669497, No Iterations 4
smoothSolver:  Solving for Uz, Initial residual = 0.0296521, Final residual = 0.000523348, No Iterations 4
GAMG:  Solving for p, Initial residual = 5.54698e-05, Final residual = 3.81255e-07, No Iterations 3
time step continuity errors : sum local = 0.00309552, global = 0.000153174, cumulative = 0.00514732
smoothSolver:  Solving for nuTilda, Initial residual = 0.0110574, Final residual = 0.000991178, No Iterations 2
bounding nuTilda, min: -0.00102015 max: 0.0646468 average: 0.0052366
ExecutionTime = 91.0266 s  ClockTime = 91 s

Time = 80s

smoothSolver:  Solving for Ux, Initial residual = 0.00568235, Final residual = 9.92514e-05, No Iterations 4
smoothSolver:  Solving for Uy, Initial residual = 0.0330822, Final residual = 0.000650843, No Iterations 4
smoothSolver:  Solving for Uz, Initial residual = 0.0287783, Final residual = 0.00051928, No Iterations 4
GAMG:  Solving for p, Initial residual = 5.49317e-05, Final residual = 3.50894e-07, No Iterations 3
time step continuity errors : sum local = 0.00280927, global = 0.000109891, cumulative = 0.00525721
smoothSolver:  Solving for nuTilda, Initial residual = 0.0109653, Final residual = 0.000971159, No Iterations 2
bounding nuTilda, min: -0.00101927 max: 0.0654928 average: 0.0053161
ExecutionTime = 92.0638 s  ClockTime = 92 s

Time = 81s

smoothSolver:  Solving for Ux, Initial residual = 0.00552081, Final residual = 9.76015e-05, No Iterations 4
smoothSolver:  Solving for Uy, Initial residual = 0.0322747, Final residual = 0.000638501, No Iterations 4
smoothSolver:  Solving for Uz, Initial residual = 0.0277398, Final residual = 0.000502059, No Iterations 4
GAMG:  Solving for p, Initial residual = 5.46817e-05, Final residual = 3.51452e-07, No Iterations 3
time step continuity errors : sum local = 0.00278248, global = 5.80272e-05, cumulative = 0.00531524
smoothSolver:  Solving for nuTilda, Initial residual = 0.0108667, Final residual = 0.000950954, No Iterations 2
bounding nuTilda, min: -0.0010201 max: 0.0664042 average: 0.00539513
ExecutionTime = 93.005 s  ClockTime = 93 s

Time = 82s

smoothSolver:  Solving for Ux, Initial residual = 0.00542247, Final residual = 9.58408e-05, No Iterations 4
smoothSolver:  Solving for Uy, Initial residual = 0.0313908, Final residual = 0.00062298, No Iterations 4
smoothSolver:  Solving for Uz, Initial residual = 0.0268379, Final residual = 0.000475919, No Iterations 4
GAMG:  Solving for p, Initial residual = 5.38818e-05, Final residual = 3.54854e-07, No Iterations 3
time step continuity errors : sum local = 0.00279469, global = 1.74198e-05, cumulative = 0.00533266
smoothSolver:  Solving for nuTilda, Initial residual = 0.0107737, Final residual = 0.000931209, No Iterations 2
bounding nuTilda, min: -0.00101923 max: 0.0673684 average: 0.0054739
ExecutionTime = 93.9949 s  ClockTime = 94 s

Time = 83s

smoothSolver:  Solving for Ux, Initial residual = 0.00536237, Final residual = 9.49402e-05, No Iterations 4
smoothSolver:  Solving for Uy, Initial residual = 0.0306089, Final residual = 0.000612045, No Iterations 4
smoothSolver:  Solving for Uz, Initial residual = 0.0262171, Final residual = 0.000447862, No Iterations 4
GAMG:  Solving for p, Initial residual = 5.36609e-05, Final residual = 3.42035e-07, No Iterations 3
time step continuity errors : sum local = 0.00268535, global = 2.83797e-05, cumulative = 0.00536104
smoothSolver:  Solving for nuTilda, Initial residual = 0.0106825, Final residual = 0.000912108, No Iterations 2
bounding nuTilda, min: -0.00102006 max: 0.0683627 average: 0.0055527
ExecutionTime = 94.958 s  ClockTime = 95 s

Time = 84s

smoothSolver:  Solving for Ux, Initial residual = 0.00531386, Final residual = 9.43727e-05, No Iterations 4
smoothSolver:  Solving for Uy, Initial residual = 0.0300064, Final residual = 0.000610294, No Iterations 4
smoothSolver:  Solving for Uz, Initial residual = 0.0258319, Final residual = 0.00257999, No Iterations 2
GAMG:  Solving for p, Initial residual = 5.32987e-05, Final residual = 3.28555e-07, No Iterations 3
time step continuity errors : sum local = 0.00257919, global = 9.0676e-05, cumulative = 0.00545171
smoothSolver:  Solving for nuTilda, Initial residual = 0.0105845, Final residual = 0.000892812, No Iterations 2
bounding nuTilda, min: -0.00101921 max: 0.0693646 average: 0.00563189
ExecutionTime = 95.8796 s  ClockTime = 96 s

Time = 85s

smoothSolver:  Solving for Ux, Initial residual = 0.00524254, Final residual = 9.33954e-05, No Iterations 4
smoothSolver:  Solving for Uy, Initial residual = 0.0295349, Final residual = 0.000615847, No Iterations 4
smoothSolver:  Solving for Uz, Initial residual = 0.0261276, Final residual = 0.000435048, No Iterations 4
GAMG:  Solving for p, Initial residual = 5.19797e-05, Final residual = 3.35504e-07, No Iterations 3
time step continuity errors : sum local = 0.00263703, global = 0.00012816, cumulative = 0.00557987
smoothSolver:  Solving for nuTilda, Initial residual = 0.0104947, Final residual = 0.000873276, No Iterations 2
bounding nuTilda, min: -0.00102004 max: 0.0703986 average: 0.00571151
ExecutionTime = 96.8027 s  ClockTime = 97 s

Time = 86s

smoothSolver:  Solving for Ux, Initial residual = 0.00520141, Final residual = 9.30573e-05, No Iterations 4
smoothSolver:  Solving for Uy, Initial residual = 0.0293578, Final residual = 0.000639051, No Iterations 4
smoothSolver:  Solving for Uz, Initial residual = 0.0258425, Final residual = 0.0025597, No Iterations 2
GAMG:  Solving for p, Initial residual = 5.0791e-05, Final residual = 3.44854e-07, No Iterations 3
time step continuity errors : sum local = 0.00271492, global = 0.000138894, cumulative = 0.00571877
smoothSolver:  Solving for nuTilda, Initial residual = 0.010397, Final residual = 0.000853093, No Iterations 2
bounding nuTilda, min: -0.00101919 max: 0.0714246 average: 0.00579155
ExecutionTime = 97.7326 s  ClockTime = 98 s

Time = 87s

smoothSolver:  Solving for Ux, Initial residual = 0.00515907, Final residual = 9.28092e-05, No Iterations 4
smoothSolver:  Solving for Uy, Initial residual = 0.0291866, Final residual = 0.000661446, No Iterations 4
smoothSolver:  Solving for Uz, Initial residual = 0.0260477, Final residual = 0.000451258, No Iterations 4
GAMG:  Solving for p, Initial residual = 4.93555e-05, Final residual = 3.25241e-07, No Iterations 3
time step continuity errors : sum local = 0.00255267, global = 0.000171504, cumulative = 0.00589027
smoothSolver:  Solving for nuTilda, Initial residual = 0.0103091, Final residual = 0.000832353, No Iterations 2
bounding nuTilda, min: -0.00102003 max: 0.0724628 average: 0.00587192
ExecutionTime = 98.7569 s  ClockTime = 99 s

Time = 88s

smoothSolver:  Solving for Ux, Initial residual = 0.005176, Final residual = 0.000516914, No Iterations 2
smoothSolver:  Solving for Uy, Initial residual = 0.0290396, Final residual = 0.000674302, No Iterations 4
smoothSolver:  Solving for Uz, Initial residual = 0.0257492, Final residual = 0.00256171, No Iterations 2
GAMG:  Solving for p, Initial residual = 4.70998e-05, Final residual = 3.11517e-07, No Iterations 3
time step continuity errors : sum local = 0.00246173, global = 0.000172759, cumulative = 0.00606303
smoothSolver:  Solving for nuTilda, Initial residual = 0.0102156, Final residual = 0.000811903, No Iterations 2
bounding nuTilda, min: -0.00101919 max: 0.0734958 average: 0.00595265
ExecutionTime = 99.7754 s  ClockTime = 100 s

Time = 89s

smoothSolver:  Solving for Ux, Initial residual = 0.00524304, Final residual = 0.00052085, No Iterations 2
smoothSolver:  Solving for Uy, Initial residual = 0.0285069, Final residual = 0.00065685, No Iterations 4
smoothSolver:  Solving for Uz, Initial residual = 0.025877, Final residual = 0.000469117, No Iterations 4
GAMG:  Solving for p, Initial residual = 4.43036e-05, Final residual = 3.0855e-07, No Iterations 3
time step continuity errors : sum local = 0.00248651, global = 0.000135383, cumulative = 0.00619841
smoothSolver:  Solving for nuTilda, Initial residual = 0.010134, Final residual = 0.000791843, No Iterations 2
bounding nuTilda, min: -0.00102003 max: 0.0745256 average: 0.00603376
ExecutionTime = 100.693 s  ClockTime = 101 s

Time = 90s

smoothSolver:  Solving for Ux, Initial residual = 0.00533249, Final residual = 0.000527409, No Iterations 2
smoothSolver:  Solving for Uy, Initial residual = 0.028219, Final residual = 0.000646059, No Iterations 4
smoothSolver:  Solving for Uz, Initial residual = 0.0256232, Final residual = 0.00250434, No Iterations 2
GAMG:  Solving for p, Initial residual = 4.44506e-05, Final residual = 3.2222e-07, No Iterations 3
time step continuity errors : sum local = 0.00250423, global = 6.60307e-05, cumulative = 0.00626444
smoothSolver:  Solving for nuTilda, Initial residual = 0.0100489, Final residual = 0.000772115, No Iterations 2
bounding nuTilda, min: -0.00101919 max: 0.0755208 average: 0.00611521
ExecutionTime = 101.637 s  ClockTime = 102 s

Time = 91s

smoothSolver:  Solving for Ux, Initial residual = 0.00538848, Final residual = 0.000528846, No Iterations 2
smoothSolver:  Solving for Uy, Initial residual = 0.0282775, Final residual = 0.000648732, No Iterations 4
smoothSolver:  Solving for Uz, Initial residual = 0.0262554, Final residual = 0.00255014, No Iterations 2
GAMG:  Solving for p, Initial residual = 4.62606e-05, Final residual = 3.44567e-07, No Iterations 3
time step continuity errors : sum local = 0.00249225, global = -5.29545e-06, cumulative = 0.00625915
smoothSolver:  Solving for nuTilda, Initial residual = 0.00997313, Final residual = 0.000753037, No Iterations 2
bounding nuTilda, min: -0.00102003 max: 0.0764692 average: 0.0061972
ExecutionTime = 102.588 s  ClockTime = 103 s

Time = 92s

smoothSolver:  Solving for Ux, Initial residual = 0.00543602, Final residual = 0.000527953, No Iterations 2
smoothSolver:  Solving for Uy, Initial residual = 0.0286881, Final residual = 0.00064883, No Iterations 4
smoothSolver:  Solving for Uz, Initial residual = 0.0271593, Final residual = 0.00262427, No Iterations 2
GAMG:  Solving for p, Initial residual = 4.67932e-05, Final residual = 3.50483e-07, No Iterations 3
time step continuity errors : sum local = 0.00242107, global = -7.13242e-05, cumulative = 0.00618782
smoothSolver:  Solving for nuTilda, Initial residual = 0.00989878, Final residual = 0.000734392, No Iterations 2
bounding nuTilda, min: -0.00101919 max: 0.0773606 average: 0.00627958
ExecutionTime = 103.518 s  ClockTime = 104 s

Time = 93s

smoothSolver:  Solving for Ux, Initial residual = 0.00550149, Final residual = 0.000526822, No Iterations 2
smoothSolver:  Solving for Uy, Initial residual = 0.0291049, Final residual = 0.000636217, No Iterations 4
smoothSolver:  Solving for Uz, Initial residual = 0.0280442, Final residual = 0.0026439, No Iterations 2
GAMG:  Solving for p, Initial residual = 4.72817e-05, Final residual = 3.59389e-07, No Iterations 3
time step continuity errors : sum local = 0.00242289, global = -0.000103649, cumulative = 0.00608418
smoothSolver:  Solving for nuTilda, Initial residual = 0.00982527, Final residual = 0.000716889, No Iterations 2
bounding nuTilda, min: -0.00102003 max: 0.0782557 average: 0.0063624
ExecutionTime = 104.443 s  ClockTime = 105 s

Time = 94s

smoothSolver:  Solving for Ux, Initial residual = 0.00559816, Final residual = 0.000525338, No Iterations 2
smoothSolver:  Solving for Uy, Initial residual = 0.0293268, Final residual = 0.000605432, No Iterations 4
smoothSolver:  Solving for Uz, Initial residual = 0.0288643, Final residual = 0.00262554, No Iterations 2
GAMG:  Solving for p, Initial residual = 4.69422e-05, Final residual = 3.74613e-07, No Iterations 3
time step continuity errors : sum local = 0.00251269, global = -0.000110394, cumulative = 0.00597378
smoothSolver:  Solving for nuTilda, Initial residual = 0.00974701, Final residual = 0.000699511, No Iterations 2
bounding nuTilda, min: -0.00101918 max: 0.0792099 average: 0.00644568
ExecutionTime = 105.333 s  ClockTime = 105 s

Time = 95s

smoothSolver:  Solving for Ux, Initial residual = 0.00568186, Final residual = 0.000518475, No Iterations 2
smoothSolver:  Solving for Uy, Initial residual = 0.0294605, Final residual = 0.000574745, No Iterations 4
smoothSolver:  Solving for Uz, Initial residual = 0.0295934, Final residual = 0.00259174, No Iterations 2
GAMG:  Solving for p, Initial residual = 4.56224e-05, Final residual = 3.7882e-07, No Iterations 3
time step continuity errors : sum local = 0.0025683, global = -9.06591e-05, cumulative = 0.00588312
smoothSolver:  Solving for nuTilda, Initial residual = 0.00966295, Final residual = 0.000682716, No Iterations 2
bounding nuTilda, min: -0.00102003 max: 0.0801714 average: 0.00652948
ExecutionTime = 106.307 s  ClockTime = 106 s

Time = 96s

smoothSolver:  Solving for Ux, Initial residual = 0.00572908, Final residual = 0.000512041, No Iterations 2
smoothSolver:  Solving for Uy, Initial residual = 0.029535, Final residual = 0.000555017, No Iterations 4
smoothSolver:  Solving for Uz, Initial residual = 0.0301381, Final residual = 0.00256615, No Iterations 2
GAMG:  Solving for p, Initial residual = 4.37891e-05, Final residual = 3.69498e-07, No Iterations 3
time step continuity errors : sum local = 0.00255402, global = -4.38621e-05, cumulative = 0.00583926
smoothSolver:  Solving for nuTilda, Initial residual = 0.00957572, Final residual = 0.000666528, No Iterations 2
bounding nuTilda, min: -0.00101918 max: 0.0811296 average: 0.00661388
ExecutionTime = 107.236 s  ClockTime = 107 s

Time = 97s

smoothSolver:  Solving for Ux, Initial residual = 0.00572004, Final residual = 0.000509548, No Iterations 2
smoothSolver:  Solving for Uy, Initial residual = 0.0294898, Final residual = 0.000543798, No Iterations 4
smoothSolver:  Solving for Uz, Initial residual = 0.0304138, Final residual = 0.00254525, No Iterations 2
GAMG:  Solving for p, Initial residual = 4.16677e-05, Final residual = 3.48096e-07, No Iterations 3
time step continuity errors : sum local = 0.00245954, global = 6.68496e-06, cumulative = 0.00584594
smoothSolver:  Solving for nuTilda, Initial residual = 0.00949244, Final residual = 0.000650852, No Iterations 2
bounding nuTilda, min: -0.00102003 max: 0.0821 average: 0.00669896
ExecutionTime = 108.214 s  ClockTime = 108 s

Time = 98s

smoothSolver:  Solving for Ux, Initial residual = 0.00568029, Final residual = 0.000505092, No Iterations 2
smoothSolver:  Solving for Uy, Initial residual = 0.0293076, Final residual = 0.000532672, No Iterations 4
smoothSolver:  Solving for Uz, Initial residual = 0.0304558, Final residual = 0.00251874, No Iterations 2
GAMG:  Solving for p, Initial residual = 3.97444e-05, Final residual = 3.27852e-07, No Iterations 3
time step continuity errors : sum local = 0.00236762, global = 4.34837e-05, cumulative = 0.00588943
smoothSolver:  Solving for nuTilda, Initial residual = 0.00940515, Final residual = 0.000635355, No Iterations 2
bounding nuTilda, min: -0.00101918 max: 0.0830377 average: 0.00678471
ExecutionTime = 109.108 s  ClockTime = 109 s

Time = 99s

smoothSolver:  Solving for Ux, Initial residual = 0.00560971, Final residual = 0.000496668, No Iterations 2
smoothSolver:  Solving for Uy, Initial residual = 0.0290466, Final residual = 0.000521077, No Iterations 4
smoothSolver:  Solving for Uz, Initial residual = 0.0303349, Final residual = 0.00247036, No Iterations 2
GAMG:  Solving for p, Initial residual = 3.7676e-05, Final residual = 3.1687e-07, No Iterations 3
time step continuity errors : sum local = 0.00233373, global = 6.53056e-05, cumulative = 0.00595473
smoothSolver:  Solving for nuTilda, Initial residual = 0.0093192, Final residual = 0.000619128, No Iterations 2
bounding nuTilda, min: -0.00102003 max: 0.0839455 average: 0.0068712
ExecutionTime = 110.007 s  ClockTime = 110 s

Time = 100s

smoothSolver:  Solving for Ux, Initial residual = 0.00552163, Final residual = 0.000487045, No Iterations 2
smoothSolver:  Solving for Uy, Initial residual = 0.0288937, Final residual = 0.00050746, No Iterations 4
smoothSolver:  Solving for Uz, Initial residual = 0.0301485, Final residual = 0.00241228, No Iterations 2
GAMG:  Solving for p, Initial residual = 3.60098e-05, Final residual = 3.13664e-07, No Iterations 3
time step continuity errors : sum local = 0.00235184, global = 7.45827e-05, cumulative = 0.00602932
smoothSolver:  Solving for nuTilda, Initial residual = 0.00922921, Final residual = 0.000602957, No Iterations 2
bounding nuTilda, min: -0.00101918 max: 0.0848269 average: 0.00695843
ExecutionTime = 111.015 s  ClockTime = 111 s

Time = 101s

smoothSolver:  Solving for Ux, Initial residual = 0.00541985, Final residual = 0.000473291, No Iterations 2
smoothSolver:  Solving for Uy, Initial residual = 0.0286986, Final residual = 0.00286624, No Iterations 2
smoothSolver:  Solving for Uz, Initial residual = 0.0298678, Final residual = 0.00233647, No Iterations 2
GAMG:  Solving for p, Initial residual = 3.4623e-05, Final residual = 3.06583e-07, No Iterations 3
time step continuity errors : sum local = 0.00232885, global = 6.28951e-05, cumulative = 0.00609221
smoothSolver:  Solving for nuTilda, Initial residual = 0.00913813, Final residual = 0.000586363, No Iterations 2
bounding nuTilda, min: -0.00102003 max: 0.0856843 average: 0.00704638
ExecutionTime = 112.005 s  ClockTime = 112 s

Time = 102s

smoothSolver:  Solving for Ux, Initial residual = 0.00527602, Final residual = 0.000452373, No Iterations 2
smoothSolver:  Solving for Uy, Initial residual = 0.0289507, Final residual = 0.0028521, No Iterations 2
smoothSolver:  Solving for Uz, Initial residual = 0.0294339, Final residual = 0.00225112, No Iterations 2
GAMG:  Solving for p, Initial residual = 3.35689e-05, Final residual = 2.90791e-07, No Iterations 3
time step continuity errors : sum local = 0.0022308, global = 3.00298e-05, cumulative = 0.00612224
smoothSolver:  Solving for nuTilda, Initial residual = 0.00904718, Final residual = 0.000569427, No Iterations 2
bounding nuTilda, min: -0.00101918 max: 0.08652 average: 0.00713489
ExecutionTime = 112.932 s  ClockTime = 113 s

Time = 103s

smoothSolver:  Solving for Ux, Initial residual = 0.0051393, Final residual = 0.000430682, No Iterations 2
smoothSolver:  Solving for Uy, Initial residual = 0.0290384, Final residual = 0.00281058, No Iterations 2
smoothSolver:  Solving for Uz, Initial residual = 0.0289035, Final residual = 0.00216772, No Iterations 2
GAMG:  Solving for p, Initial residual = 3.22954e-05, Final residual = 2.75874e-07, No Iterations 3
time step continuity errors : sum local = 0.00212861, global = -1.42614e-05, cumulative = 0.00610798
smoothSolver:  Solving for nuTilda, Initial residual = 0.00895921, Final residual = 0.000552147, No Iterations 2
bounding nuTilda, min: -0.00102003 max: 0.0873779 average: 0.00722406
ExecutionTime = 113.875 s  ClockTime = 114 s

Time = 104s

smoothSolver:  Solving for Ux, Initial residual = 0.00499756, Final residual = 0.000411087, No Iterations 2
[...]

smoothSolver:  Solving for Ux, Initial residual = 6.62247e-06, Final residual = 2.21154e-07, No Iterations 4
smoothSolver:  Solving for Uy, Initial residual = 2.42782e-05, Final residual = 9.37612e-07, No Iterations 4
smoothSolver:  Solving for Uz, Initial residual = 1.93817e-05, Final residual = 7.23895e-07, No Iterations 4
GAMG:  Solving for p, Initial residual = 3.43373e-07, Final residual = 2.85245e-08, No Iterations 1
time step continuity errors : sum local = 0.000150065, global = -9.76167e-05, cumulative = -0.0381992
smoothSolver:  Solving for nuTilda, Initial residual = 0.000145792, Final residual = 1.22305e-05, No Iterations 2
bounding nuTilda, min: -0.00102003 max: 0.127445 average: 0.0128833
ExecutionTime = 454.686 s  ClockTime = 455 s

Time = 476s

smoothSolver:  Solving for Ux, Initial residual = 6.62734e-06, Final residual = 2.21786e-07, No Iterations 4
smoothSolver:  Solving for Uy, Initial residual = 2.42356e-05, Final residual = 9.41172e-07, No Iterations 4
smoothSolver:  Solving for Uz, Initial residual = 1.94017e-05, Final residual = 7.20818e-07, No Iterations 4
GAMG:  Solving for p, Initial residual = 3.4345e-07, Final residual = 2.86476e-08, No Iterations 1
time step continuity errors : sum local = 0.000150499, global = -9.76586e-05, cumulative = -0.0382969
smoothSolver:  Solving for nuTilda, Initial residual = 0.000145422, Final residual = 1.22006e-05, No Iterations 2
bounding nuTilda, min: -0.00101919 max: 0.127497 average: 0.0128851
ExecutionTime = 455.594 s  ClockTime = 456 s

Time = 477s

smoothSolver:  Solving for Ux, Initial residual = 6.62882e-06, Final residual = 2.21569e-07, No Iterations 4
smoothSolver:  Solving for Uy, Initial residual = 2.41949e-05, Final residual = 9.45054e-07, No Iterations 4
smoothSolver:  Solving for Uz, Initial residual = 1.93856e-05, Final residual = 7.17666e-07, No Iterations 4
GAMG:  Solving for p, Initial residual = 3.43221e-07, Final residual = 2.87128e-08, No Iterations 1
time step continuity errors : sum local = 0.000150628, global = -9.77124e-05, cumulative = -0.0383946
smoothSolver:  Solving for nuTilda, Initial residual = 0.000145204, Final residual = 1.21706e-05, No Iterations 2
bounding nuTilda, min: -0.00102003 max: 0.127549 average: 0.0128869
ExecutionTime = 456.661 s  ClockTime = 457 s

Time = 478s

smoothSolver:  Solving for Ux, Initial residual = 6.63357e-06, Final residual = 2.21485e-07, No Iterations 4
smoothSolver:  Solving for Uy, Initial residual = 2.41988e-05, Final residual = 9.48178e-07, No Iterations 4
smoothSolver:  Solving for Uz, Initial residual = 1.93553e-05, Final residual = 7.14809e-07, No Iterations 4
GAMG:  Solving for p, Initial residual = 3.4293e-07, Final residual = 2.88084e-08, No Iterations 1
time step continuity errors : sum local = 0.000150914, global = -9.7856e-05, cumulative = -0.0384925
smoothSolver:  Solving for nuTilda, Initial residual = 0.000144809, Final residual = 1.21415e-05, No Iterations 2
bounding nuTilda, min: -0.00101919 max: 0.127601 average: 0.0128886
ExecutionTime = 457.498 s  ClockTime = 458 s

Time = 479s

smoothSolver:  Solving for Ux, Initial residual = 6.63475e-06, Final residual = 2.21033e-07, No Iterations 4
smoothSolver:  Solving for Uy, Initial residual = 2.42043e-05, Final residual = 9.49863e-07, No Iterations 4
smoothSolver:  Solving for Uz, Initial residual = 1.93265e-05, Final residual = 7.12284e-07, No Iterations 4
GAMG:  Solving for p, Initial residual = 3.42741e-07, Final residual = 2.91995e-08, No Iterations 1
time step continuity errors : sum local = 0.000152744, global = -0.00010098, cumulative = -0.0385935
smoothSolver:  Solving for nuTilda, Initial residual = 0.000144581, Final residual = 1.21112e-05, No Iterations 2
bounding nuTilda, min: -0.00102003 max: 0.127652 average: 0.0128904
ExecutionTime = 458.347 s  ClockTime = 458 s

Time = 480s

smoothSolver:  Solving for Ux, Initial residual = 6.62365e-06, Final residual = 2.18327e-07, No Iterations 4
smoothSolver:  Solving for Uy, Initial residual = 2.41966e-05, Final residual = 9.4825e-07, No Iterations 4
smoothSolver:  Solving for Uz, Initial residual = 1.92809e-05, Final residual = 7.07096e-07, No Iterations 4
GAMG:  Solving for p, Initial residual = 3.43162e-07, Final residual = 2.89546e-08, No Iterations 1
time step continuity errors : sum local = 0.000151239, global = -9.86382e-05, cumulative = -0.0386921
smoothSolver:  Solving for nuTilda, Initial residual = 0.000144223, Final residual = 1.20824e-05, No Iterations 2
bounding nuTilda, min: -0.00101919 max: 0.127703 average: 0.0128922
ExecutionTime = 459.395 s  ClockTime = 459 s

Time = 481s

smoothSolver:  Solving for Ux, Initial residual = 6.61736e-06, Final residual = 2.16678e-07, No Iterations 4
smoothSolver:  Solving for Uy, Initial residual = 2.41637e-05, Final residual = 9.44176e-07, No Iterations 4
smoothSolver:  Solving for Uz, Initial residual = 1.92255e-05, Final residual = 7.048e-07, No Iterations 4
GAMG:  Solving for p, Initial residual = 3.43179e-07, Final residual = 2.90336e-08, No Iterations 1
time step continuity errors : sum local = 0.000151439, global = -9.91893e-05, cumulative = -0.0387913
smoothSolver:  Solving for nuTilda, Initial residual = 0.000143985, Final residual = 1.20526e-05, No Iterations 2
bounding nuTilda, min: -0.00102003 max: 0.127754 average: 0.012894
ExecutionTime = 460.318 s  ClockTime = 460 s

Time = 482s

smoothSolver:  Solving for Ux, Initial residual = 6.61098e-06, Final residual = 2.15368e-07, No Iterations 4
smoothSolver:  Solving for Uy, Initial residual = 2.4136e-05, Final residual = 9.39952e-07, No Iterations 4
smoothSolver:  Solving for Uz, Initial residual = 1.91822e-05, Final residual = 7.05066e-07, No Iterations 4
GAMG:  Solving for p, Initial residual = 3.43532e-07, Final residual = 2.91075e-08, No Iterations 1
time step continuity errors : sum local = 0.000151603, global = -9.94222e-05, cumulative = -0.0388907
smoothSolver:  Solving for nuTilda, Initial residual = 0.000143687, Final residual = 1.2026e-05, No Iterations 2
bounding nuTilda, min: -0.00101919 max: 0.127805 average: 0.0128958
ExecutionTime = 461.246 s  ClockTime = 461 s

Time = 483s

smoothSolver:  Solving for Ux, Initial residual = 6.60939e-06, Final residual = 2.15061e-07, No Iterations 4
smoothSolver:  Solving for Uy, Initial residual = 2.41165e-05, Final residual = 9.3554e-07, No Iterations 4
smoothSolver:  Solving for Uz, Initial residual = 1.9161e-05, Final residual = 7.07478e-07, No Iterations 4
GAMG:  Solving for p, Initial residual = 3.43797e-07, Final residual = 2.91776e-08, No Iterations 1
time step continuity errors : sum local = 0.000151747, global = -9.93083e-05, cumulative = -0.03899
smoothSolver:  Solving for nuTilda, Initial residual = 0.000143382, Final residual = 1.1997e-05, No Iterations 2
bounding nuTilda, min: -0.00102003 max: 0.127855 average: 0.0128976
ExecutionTime = 462.169 s  ClockTime = 462 s

Time = 484s

smoothSolver:  Solving for Ux, Initial residual = 6.60825e-06, Final residual = 2.15517e-07, No Iterations 4
smoothSolver:  Solving for Uy, Initial residual = 2.40842e-05, Final residual = 9.31785e-07, No Iterations 4
smoothSolver:  Solving for Uz, Initial residual = 1.91606e-05, Final residual = 7.09228e-07, No Iterations 4
GAMG:  Solving for p, Initial residual = 3.44036e-07, Final residual = 2.92029e-08, No Iterations 1
time step continuity errors : sum local = 0.000151657, global = -9.89346e-05, cumulative = -0.0390889
smoothSolver:  Solving for nuTilda, Initial residual = 0.00014312, Final residual = 1.19697e-05, No Iterations 2
bounding nuTilda, min: -0.00101919 max: 0.127905 average: 0.0128994
ExecutionTime = 463.133 s  ClockTime = 463 s

Time = 485s

smoothSolver:  Solving for Ux, Initial residual = 6.6047e-06, Final residual = 2.15905e-07, No Iterations 4
smoothSolver:  Solving for Uy, Initial residual = 2.39958e-05, Final residual = 9.28011e-07, No Iterations 4
smoothSolver:  Solving for Uz, Initial residual = 1.91211e-05, Final residual = 7.09051e-07, No Iterations 4
GAMG:  Solving for p, Initial residual = 3.4408e-07, Final residual = 2.92147e-08, No Iterations 1
time step continuity errors : sum local = 0.000151497, global = -9.85586e-05, cumulative = -0.0391875
smoothSolver:  Solving for nuTilda, Initial residual = 0.000142863, Final residual = 1.19411e-05, No Iterations 2
bounding nuTilda, min: -0.00102003 max: 0.127955 average: 0.0129012
ExecutionTime = 464.154 s  ClockTime = 464 s

Time = 486s

smoothSolver:  Solving for Ux, Initial residual = 6.60138e-06, Final residual = 2.16579e-07, No Iterations 4
smoothSolver:  Solving for Uy, Initial residual = 2.39173e-05, Final residual = 9.24088e-07, No Iterations 4
smoothSolver:  Solving for Uz, Initial residual = 1.90809e-05, Final residual = 7.0915e-07, No Iterations 4
GAMG:  Solving for p, Initial residual = 3.44214e-07, Final residual = 2.92017e-08, No Iterations 1
time step continuity errors : sum local = 0.000151208, global = -9.7985e-05, cumulative = -0.0392855
smoothSolver:  Solving for nuTilda, Initial residual = 0.000142529, Final residual = 1.19151e-05, No Iterations 2
bounding nuTilda, min: -0.00101919 max: 0.128004 average: 0.012903
ExecutionTime = 465.077 s  ClockTime = 465 s

Time = 487s

smoothSolver:  Solving for Ux, Initial residual = 6.59889e-06, Final residual = 2.16751e-07, No Iterations 4
smoothSolver:  Solving for Uy, Initial residual = 2.38819e-05, Final residual = 9.1953e-07, No Iterations 4
smoothSolver:  Solving for Uz, Initial residual = 1.90565e-05, Final residual = 7.09406e-07, No Iterations 4
GAMG:  Solving for p, Initial residual = 3.4429e-07, Final residual = 2.91806e-08, No Iterations 1
time step continuity errors : sum local = 0.000150878, global = -9.77279e-05, cumulative = -0.0393832
smoothSolver:  Solving for nuTilda, Initial residual = 0.000142291, Final residual = 1.18871e-05, No Iterations 2
bounding nuTilda, min: -0.00102003 max: 0.128053 average: 0.0129048
ExecutionTime = 465.934 s  ClockTime = 466 s

Time = 488s

smoothSolver:  Solving for Ux, Initial residual = 6.6017e-06, Final residual = 2.17254e-07, No Iterations 4
smoothSolver:  Solving for Uy, Initial residual = 2.38601e-05, Final residual = 9.14699e-07, No Iterations 4
smoothSolver:  Solving for Uz, Initial residual = 1.90354e-05, Final residual = 7.09511e-07, No Iterations 4
GAMG:  Solving for p, Initial residual = 3.44416e-07, Final residual = 2.92413e-08, No Iterations 1
time step continuity errors : sum local = 0.000150969, global = -9.76321e-05, cumulative = -0.0394808
smoothSolver:  Solving for nuTilda, Initial residual = 0.000142045, Final residual = 1.18604e-05, No Iterations 2
bounding nuTilda, min: -0.00101919 max: 0.128102 average: 0.0129066
ExecutionTime = 466.801 s  ClockTime = 467 s

Time = 489s

smoothSolver:  Solving for Ux, Initial residual = 6.60013e-06, Final residual = 2.17362e-07, No Iterations 4
smoothSolver:  Solving for Uy, Initial residual = 2.37891e-05, Final residual = 9.07857e-07, No Iterations 4
smoothSolver:  Solving for Uz, Initial residual = 1.9011e-05, Final residual = 7.07829e-07, No Iterations 4
GAMG:  Solving for p, Initial residual = 3.44193e-07, Final residual = 2.97011e-08, No Iterations 1
time step continuity errors : sum local = 0.000153118, global = -0.000101226, cumulative = -0.0395821
smoothSolver:  Solving for nuTilda, Initial residual = 0.000141809, Final residual = 1.18346e-05, No Iterations 2
bounding nuTilda, min: -0.00102003 max: 0.12815 average: 0.0129084
ExecutionTime = 467.649 s  ClockTime = 468 s

Time = 490s

smoothSolver:  Solving for Ux, Initial residual = 6.61515e-06, Final residual = 2.2058e-07, No Iterations 4
smoothSolver:  Solving for Uy, Initial residual = 2.3717e-05, Final residual = 9.01137e-07, No Iterations 4
smoothSolver:  Solving for Uz, Initial residual = 1.89423e-05, Final residual = 7.01777e-07, No Iterations 4
GAMG:  Solving for p, Initial residual = 3.4445e-07, Final residual = 2.93715e-08, No Iterations 1
time step continuity errors : sum local = 0.000151186, global = -9.83451e-05, cumulative = -0.0396804
smoothSolver:  Solving for nuTilda, Initial residual = 0.000141554, Final residual = 1.18077e-05, No Iterations 2
bounding nuTilda, min: -0.00101919 max: 0.128199 average: 0.0129102
ExecutionTime = 468.513 s  ClockTime = 469 s

Time = 491s

smoothSolver:  Solving for Ux, Initial residual = 6.60692e-06, Final residual = 2.20161e-07, No Iterations 4
smoothSolver:  Solving for Uy, Initial residual = 2.35734e-05, Final residual = 8.9771e-07, No Iterations 4
smoothSolver:  Solving for Uz, Initial residual = 1.88544e-05, Final residual = 6.97718e-07, No Iterations 4
GAMG:  Solving for p, Initial residual = 3.4415e-07, Final residual = 2.95477e-08, No Iterations 1
time step continuity errors : sum local = 0.000151875, global = -9.93208e-05, cumulative = -0.0397797
smoothSolver:  Solving for nuTilda, Initial residual = 0.000141249, Final residual = 1.17819e-05, No Iterations 2
bounding nuTilda, min: -0.00102003 max: 0.128247 average: 0.012912
ExecutionTime = 469.426 s  ClockTime = 470 s

Time = 492s

smoothSolver:  Solving for Ux, Initial residual = 6.59886e-06, Final residual = 2.19527e-07, No Iterations 4
smoothSolver:  Solving for Uy, Initial residual = 2.34501e-05, Final residual = 8.99304e-07, No Iterations 4
smoothSolver:  Solving for Uz, Initial residual = 1.87976e-05, Final residual = 6.97589e-07, No Iterations 4
GAMG:  Solving for p, Initial residual = 3.44265e-07, Final residual = 2.97296e-08, No Iterations 1
time step continuity errors : sum local = 0.000152582, global = -0.000100028, cumulative = -0.0398798
smoothSolver:  Solving for nuTilda, Initial residual = 0.000141036, Final residual = 1.17569e-05, No Iterations 2
bounding nuTilda, min: -0.00101919 max: 0.128295 average: 0.0129138
ExecutionTime = 470.282 s  ClockTime = 470 s

Time = 493s

smoothSolver:  Solving for Ux, Initial residual = 6.58894e-06, Final residual = 2.18463e-07, No Iterations 4
smoothSolver:  Solving for Uy, Initial residual = 2.32944e-05, Final residual = 9.01266e-07, No Iterations 4
smoothSolver:  Solving for Uz, Initial residual = 1.87522e-05, Final residual = 6.9952e-07, No Iterations 4
GAMG:  Solving for p, Initial residual = 3.44034e-07, Final residual = 2.98782e-08, No Iterations 1
time step continuity errors : sum local = 0.000153117, global = -0.000100563, cumulative = -0.0399803
smoothSolver:  Solving for nuTilda, Initial residual = 0.000140829, Final residual = 1.17318e-05, No Iterations 2
bounding nuTilda, min: -0.00102003 max: 0.128342 average: 0.0129156
ExecutionTime = 471.188 s  ClockTime = 471 s

Time = 494s

smoothSolver:  Solving for Ux, Initial residual = 6.57904e-06, Final residual = 2.17611e-07, No Iterations 4
smoothSolver:  Solving for Uy, Initial residual = 2.30913e-05, Final residual = 9.01126e-07, No Iterations 4
smoothSolver:  Solving for Uz, Initial residual = 1.86758e-05, Final residual = 6.99672e-07, No Iterations 4
GAMG:  Solving for p, Initial residual = 3.43862e-07, Final residual = 2.99777e-08, No Iterations 1
time step continuity errors : sum local = 0.000153397, global = -0.000101071, cumulative = -0.0400814
smoothSolver:  Solving for nuTilda, Initial residual = 0.000140553, Final residual = 1.17058e-05, No Iterations 2
bounding nuTilda, min: -0.00101919 max: 0.128389 average: 0.0129174
ExecutionTime = 472.038 s  ClockTime = 472 s

Time = 495s

smoothSolver:  Solving for Ux, Initial residual = 6.57159e-06, Final residual = 2.16458e-07, No Iterations 4
smoothSolver:  Solving for Uy, Initial residual = 2.29064e-05, Final residual = 8.99089e-07, No Iterations 4
smoothSolver:  Solving for Uz, Initial residual = 1.85756e-05, Final residual = 6.9582e-07, No Iterations 4
GAMG:  Solving for p, Initial residual = 3.44012e-07, Final residual = 3.01365e-08, No Iterations 1
time step continuity errors : sum local = 0.00015398, global = -0.000101624, cumulative = -0.040183
smoothSolver:  Solving for nuTilda, Initial residual = 0.000140306, Final residual = 1.168e-05, No Iterations 2
bounding nuTilda, min: -0.00102003 max: 0.128436 average: 0.0129192
ExecutionTime = 472.881 s  ClockTime = 473 s

Time = 496s

smoothSolver:  Solving for Ux, Initial residual = 6.56867e-06, Final residual = 2.15701e-07, No Iterations 4
smoothSolver:  Solving for Uy, Initial residual = 2.27873e-05, Final residual = 8.9569e-07, No Iterations 4
smoothSolver:  Solving for Uz, Initial residual = 1.84854e-05, Final residual = 6.90062e-07, No Iterations 4
GAMG:  Solving for p, Initial residual = 3.44021e-07, Final residual = 3.02563e-08, No Iterations 1
time step continuity errors : sum local = 0.000154361, global = -0.00010203, cumulative = -0.0402851
smoothSolver:  Solving for nuTilda, Initial residual = 0.000140047, Final residual = 1.16552e-05, No Iterations 2
bounding nuTilda, min: -0.00101919 max: 0.128483 average: 0.012921
ExecutionTime = 473.734 s  ClockTime = 474 s

Time = 497s

smoothSolver:  Solving for Ux, Initial residual = 6.56588e-06, Final residual = 2.1486e-07, No Iterations 4
smoothSolver:  Solving for Uy, Initial residual = 2.27236e-05, Final residual = 8.93518e-07, No Iterations 4
smoothSolver:  Solving for Uz, Initial residual = 1.83785e-05, Final residual = 6.83381e-07, No Iterations 4
GAMG:  Solving for p, Initial residual = 3.43941e-07, Final residual = 3.03335e-08, No Iterations 1
time step continuity errors : sum local = 0.000154524, global = -0.000102331, cumulative = -0.0403874
smoothSolver:  Solving for nuTilda, Initial residual = 0.000139871, Final residual = 1.16317e-05, No Iterations 2
bounding nuTilda, min: -0.00102003 max: 0.128529 average: 0.0129228
ExecutionTime = 474.602 s  ClockTime = 475 s

Time = 498s

smoothSolver:  Solving for Ux, Initial residual = 6.56543e-06, Final residual = 2.14505e-07, No Iterations 4
smoothSolver:  Solving for Uy, Initial residual = 2.26904e-05, Final residual = 8.93671e-07, No Iterations 4
smoothSolver:  Solving for Uz, Initial residual = 1.83054e-05, Final residual = 6.79361e-07, No Iterations 4
GAMG:  Solving for p, Initial residual = 3.43931e-07, Final residual = 3.03924e-08, No Iterations 1
time step continuity errors : sum local = 0.000154592, global = -0.000102408, cumulative = -0.0404898
smoothSolver:  Solving for nuTilda, Initial residual = 0.00013965, Final residual = 1.16087e-05, No Iterations 2
bounding nuTilda, min: -0.00101919 max: 0.128575 average: 0.0129246
ExecutionTime = 475.509 s  ClockTime = 476 s

Time = 499s

smoothSolver:  Solving for Ux, Initial residual = 6.56125e-06, Final residual = 2.13767e-07, No Iterations 4
smoothSolver:  Solving for Uy, Initial residual = 2.26577e-05, Final residual = 8.93615e-07, No Iterations 4
smoothSolver:  Solving for Uz, Initial residual = 1.82669e-05, Final residual = 6.75405e-07, No Iterations 4
GAMG:  Solving for p, Initial residual = 3.44088e-07, Final residual = 3.04536e-08, No Iterations 1
time step continuity errors : sum local = 0.00015467, global = -0.000102545, cumulative = -0.0405923
smoothSolver:  Solving for nuTilda, Initial residual = 0.000139422, Final residual = 1.15863e-05, No Iterations 2
bounding nuTilda, min: -0.00102003 max: 0.128621 average: 0.0129264
ExecutionTime = 476.408 s  ClockTime = 477 s

Time = 500s

smoothSolver:  Solving for Ux, Initial residual = 6.5556e-06, Final residual = 2.13416e-07, No Iterations 4
smoothSolver:  Solving for Uy, Initial residual = 2.26625e-05, Final residual = 8.9257e-07, No Iterations 4
smoothSolver:  Solving for Uz, Initial residual = 1.82076e-05, Final residual = 6.7257e-07, No Iterations 4
GAMG:  Solving for p, Initial residual = 3.44386e-07, Final residual = 3.05835e-08, No Iterations 1
time step continuity errors : sum local = 0.000155096, global = -0.000102747, cumulative = -0.0406951
smoothSolver:  Solving for nuTilda, Initial residual = 0.000139228, Final residual = 1.15651e-05, No Iterations 2
bounding nuTilda, min: -0.00101919 max: 0.128667 average: 0.0129282
ExecutionTime = 477.249 s  ClockTime = 477 s

End

Finalising parallel run
