/*---------------------------------------------------------------------------*\
  =========                 |
  \\      /  F ield         | OpenFOAM: The Open Source CFD Toolbox
   \\    /   O peration     | Website:  https://openfoam.org
    \\  /    A nd           | Version:  11
     \\/     M anipulation  |
\*---------------------------------------------------------------------------*/
Build  : 11-d496a603da00
Exec   : foamRun -solver incompressibleFluid -parallel
Date   : Oct 24 2023
Time   : 20:59:19
Host   : "Laptop"
PID    : 494569
I/O    : uncollated
Case   : /home/tiago/OpenFOAM/tiago-11/run/wind_tunnel_SA_WallModel_DualSym_Medium
nProcs : 4
Slaves : 
3
(
"Laptop.494570"
"Laptop.494571"
"Laptop.494576"
)

Pstream initialised with:
    floatTransfer      : false
    nProcsSimpleSum    : 0
    commsType          : nonBlocking
    polling iterations : 0
sigFpe : Enabling floating point exception trapping (FOAM_SIGFPE).
fileModificationChecking : Monitoring run-time modified files using timeStampMaster (fileModificationSkew 10)
allowSystemOperations : Allowing user-supplied system call operations

// * * * * * * * * * * * * * * * * * * * * * * * * * * * * * * * * * * * * * //
Create time

Create mesh for time = 0

Selecting solver incompressibleFluid
Selecting viscosity model constant
Selecting turbulence model type RAS
Selecting RAS turbulence model SpalartAllmaras
Selecting patchDistMethod meshWave
RAS
{
    model           SpalartAllmaras;
    turbulence      on;
    printCoeffs     on;
    sigmaNut        0.66666;
    kappa           0.41;
    Cb1             0.1355;
    Cb2             0.622;
    Cw2             0.3;
    Cw3             2;
    Cv1             7.1;
    Cs              0.3;
}

No MRF models present


SIMPLE: Convergence criteria found
        p: tolerance 0.0001
        U: tolerance 0.0001
        nuTilda: tolerance 0.0001


SIMPLE: Operating solver in steady-state mode with 1 outer corrector
SIMPLE: Operating solver in SIMPLE mode



Starting time loop

Time = 1s

smoothSolver:  Solving for Ux, Initial residual = 1, Final residual = 1.9192e-05, No Iterations 2
smoothSolver:  Solving for Uy, Initial residual = 1, Final residual = 0.0287283, No Iterations 2
smoothSolver:  Solving for Uz, Initial residual = 1, Final residual = 0.030263, No Iterations 2
GAMG:  Solving for p, Initial residual = 1, Final residual = 0.00806841, No Iterations 17
time step continuity errors : sum local = 0.00559715, global = 0.00142329, cumulative = 0.00142329
smoothSolver:  Solving for nuTilda, Initial residual = 1, Final residual = 0.00406769, No Iterations 2
bounding nuTilda, min: -0.000720762 max: 0.0374 average: 0.000232474
ExecutionTime = 1.69594 s  ClockTime = 2 s

Time = 2s

smoothSolver:  Solving for Ux, Initial residual = 0.0939718, Final residual = 0.00392453, No Iterations 2
smoothSolver:  Solving for Uy, Initial residual = 0.238065, Final residual = 0.00946124, No Iterations 2
smoothSolver:  Solving for Uz, Initial residual = 0.243863, Final residual = 0.00946112, No Iterations 2
GAMG:  Solving for p, Initial residual = 0.0102331, Final residual = 9.81126e-05, No Iterations 40
time step continuity errors : sum local = 0.0116527, global = -0.000163056, cumulative = 0.00126024
smoothSolver:  Solving for nuTilda, Initial residual = 0.15454, Final residual = 0.0016442, No Iterations 2
bounding nuTilda, min: -0.00365372 max: 0.0374 average: 0.000326962
ExecutionTime = 2.91205 s  ClockTime = 3 s

Time = 3s

smoothSolver:  Solving for Ux, Initial residual = 0.268589, Final residual = 0.022077, No Iterations 2
smoothSolver:  Solving for Uy, Initial residual = 0.315782, Final residual = 0.0280552, No Iterations 2
smoothSolver:  Solving for Uz, Initial residual = 0.265729, Final residual = 0.0256038, No Iterations 2
GAMG:  Solving for p, Initial residual = 7.34164e-05, Final residual = 4.67217e-07, No Iterations 5
time step continuity errors : sum local = 0.0154767, global = 0.00192336, cumulative = 0.00318359
smoothSolver:  Solving for nuTilda, Initial residual = 0.0911422, Final residual = 0.00285166, No Iterations 2
bounding nuTilda, min: -0.00302328 max: 0.0374 average: 0.000402881
ExecutionTime = 3.46487 s  ClockTime = 3 s

Time = 4s

smoothSolver:  Solving for Ux, Initial residual = 0.234466, Final residual = 0.0174981, No Iterations 2
smoothSolver:  Solving for Uy, Initial residual = 0.203822, Final residual = 0.00483799, No Iterations 4
smoothSolver:  Solving for Uz, Initial residual = 0.198234, Final residual = 0.00449642, No Iterations 4
GAMG:  Solving for p, Initial residual = 4.78593e-05, Final residual = 4.04562e-07, No Iterations 10
time step continuity errors : sum local = 0.0237412, global = -0.00408559, cumulative = -0.000901995
smoothSolver:  Solving for nuTilda, Initial residual = 0.0662952, Final residual = 0.00241589, No Iterations 2
bounding nuTilda, min: -0.00340355 max: 0.037605 average: 0.00048091
ExecutionTime = 4.09324 s  ClockTime = 4 s

Time = 5s

smoothSolver:  Solving for Ux, Initial residual = 0.0737746, Final residual = 0.00133391, No Iterations 4
smoothSolver:  Solving for Uy, Initial residual = 0.14921, Final residual = 0.00321511, No Iterations 4
smoothSolver:  Solving for Uz, Initial residual = 0.138867, Final residual = 0.00297069, No Iterations 4
GAMG:  Solving for p, Initial residual = 0.000199606, Final residual = 1.6384e-06, No Iterations 10
time step continuity errors : sum local = 0.0235843, global = -0.00419374, cumulative = -0.00509573
smoothSolver:  Solving for nuTilda, Initial residual = 0.0533092, Final residual = 0.0019557, No Iterations 2
bounding nuTilda, min: -0.00406331 max: 0.0376684 average: 0.000562991
ExecutionTime = 4.76376 s  ClockTime = 5 s

Time = 6s

smoothSolver:  Solving for Ux, Initial residual = 0.137252, Final residual = 0.0110387, No Iterations 2
smoothSolver:  Solving for Uy, Initial residual = 0.148172, Final residual = 0.00349896, No Iterations 4
smoothSolver:  Solving for Uz, Initial residual = 0.135998, Final residual = 0.00290958, No Iterations 4
GAMG:  Solving for p, Initial residual = 0.000146748, Final residual = 9.66425e-07, No Iterations 5
time step continuity errors : sum local = 0.0175381, global = -0.00180844, cumulative = -0.00690418
smoothSolver:  Solving for nuTilda, Initial residual = 0.0453983, Final residual = 0.00160635, No Iterations 2
bounding nuTilda, min: -0.00536076 max: 0.0376422 average: 0.000649066
ExecutionTime = 5.54434 s  ClockTime = 6 s

Time = 7s

smoothSolver:  Solving for Ux, Initial residual = 0.145098, Final residual = 0.0123875, No Iterations 2
smoothSolver:  Solving for Uy, Initial residual = 0.149974, Final residual = 0.00371792, No Iterations 4
smoothSolver:  Solving for Uz, Initial residual = 0.142131, Final residual = 0.00334522, No Iterations 4
GAMG:  Solving for p, Initial residual = 0.000132759, Final residual = 1.29479e-06, No Iterations 8
time step continuity errors : sum local = 0.0246887, global = 0.00327037, cumulative = -0.00363381
smoothSolver:  Solving for nuTilda, Initial residual = 0.0394951, Final residual = 0.00135821, No Iterations 2
bounding nuTilda, min: -0.00585832 max: 0.0375563 average: 0.000740319
ExecutionTime = 6.63263 s  ClockTime = 7 s

Time = 8s

smoothSolver:  Solving for Ux, Initial residual = 0.0654112, Final residual = 0.00639447, No Iterations 2
smoothSolver:  Solving for Uy, Initial residual = 0.122275, Final residual = 0.00297257, No Iterations 4
smoothSolver:  Solving for Uz, Initial residual = 0.121172, Final residual = 0.00271013, No Iterations 4
GAMG:  Solving for p, Initial residual = 0.000958686, Final residual = 8.79446e-06, No Iterations 9
time step continuity errors : sum local = 0.0207153, global = 0.00353458, cumulative = -9.92298e-05
smoothSolver:  Solving for nuTilda, Initial residual = 0.0337949, Final residual = 0.00117551, No Iterations 2
bounding nuTilda, min: -0.00609276 max: 0.0375068 average: 0.000826494
ExecutionTime = 7.8447 s  ClockTime = 8 s

Time = 9s

smoothSolver:  Solving for Ux, Initial residual = 0.0983194, Final residual = 0.00834128, No Iterations 2
smoothSolver:  Solving for Uy, Initial residual = 0.118641, Final residual = 0.00303278, No Iterations 4
smoothSolver:  Solving for Uz, Initial residual = 0.114535, Final residual = 0.00240849, No Iterations 4
GAMG:  Solving for p, Initial residual = 0.000160829, Final residual = 1.24095e-06, No Iterations 5
time step continuity errors : sum local = 0.0169898, global = 0.00195261, cumulative = 0.00185338
smoothSolver:  Solving for nuTilda, Initial residual = 0.0291803, Final residual = 0.00103293, No Iterations 2
bounding nuTilda, min: -0.0063317 max: 0.0374679 average: 0.000906046
ExecutionTime = 8.57695 s  ClockTime = 9 s

Time = 10s

smoothSolver:  Solving for Ux, Initial residual = 0.0855016, Final residual = 0.00769074, No Iterations 2
smoothSolver:  Solving for Uy, Initial residual = 0.115507, Final residual = 0.00265858, No Iterations 4
smoothSolver:  Solving for Uz, Initial residual = 0.110538, Final residual = 0.00226728, No Iterations 4
GAMG:  Solving for p, Initial residual = 0.00013678, Final residual = 8.82953e-07, No Iterations 7
time step continuity errors : sum local = 0.0135632, global = -0.00226615, cumulative = -0.000412768
smoothSolver:  Solving for nuTilda, Initial residual = 0.0258156, Final residual = 0.000939558, No Iterations 2
bounding nuTilda, min: -0.00625207 max: 0.0374604 average: 0.000981141
ExecutionTime = 9.35708 s  ClockTime = 9 s

Time = 11s

smoothSolver:  Solving for Ux, Initial residual = 0.0495372, Final residual = 0.000879106, No Iterations 4
smoothSolver:  Solving for Uy, Initial residual = 0.0955255, Final residual = 0.0021542, No Iterations 4
smoothSolver:  Solving for Uz, Initial residual = 0.0930072, Final residual = 0.00197887, No Iterations 4
GAMG:  Solving for p, Initial residual = 0.000441401, Final residual = 3.4584e-06, No Iterations 8
time step continuity errors : sum local = 0.0157066, global = -0.00317973, cumulative = -0.0035925
smoothSolver:  Solving for nuTilda, Initial residual = 0.0237428, Final residual = 0.000871427, No Iterations 2
bounding nuTilda, min: -0.00633546 max: 0.0374756 average: 0.00105256
ExecutionTime = 10.2264 s  ClockTime = 10 s

Time = 12s

smoothSolver:  Solving for Ux, Initial residual = 0.0613807, Final residual = 0.00567958, No Iterations 2
smoothSolver:  Solving for Uy, Initial residual = 0.0965, Final residual = 0.00192372, No Iterations 4
smoothSolver:  Solving for Uz, Initial residual = 0.0908623, Final residual = 0.00171178, No Iterations 4
GAMG:  Solving for p, Initial residual = 0.000287161, Final residual = 2.59932e-06, No Iterations 5
time step continuity errors : sum local = 0.0179, global = -0.00164267, cumulative = -0.00523517
smoothSolver:  Solving for nuTilda, Initial residual = 0.0220196, Final residual = 0.00081368, No Iterations 2
bounding nuTilda, min: -0.0062599 max: 0.0375099 average: 0.00112142
ExecutionTime = 10.8935 s  ClockTime = 11 s

Time = 13s

smoothSolver:  Solving for Ux, Initial residual = 0.0565511, Final residual = 0.0054564, No Iterations 2
smoothSolver:  Solving for Uy, Initial residual = 0.0957296, Final residual = 0.00186243, No Iterations 4
smoothSolver:  Solving for Uz, Initial residual = 0.0901917, Final residual = 0.00166786, No Iterations 4
GAMG:  Solving for p, Initial residual = 0.000490774, Final residual = 3.69481e-06, No Iterations 5
time step continuity errors : sum local = 0.0142237, global = 0.00131862, cumulative = -0.00391655
smoothSolver:  Solving for nuTilda, Initial residual = 0.0204628, Final residual = 0.00076273, No Iterations 2
bounding nuTilda, min: -0.00633039 max: 0.0374974 average: 0.00118766
ExecutionTime = 11.8535 s  ClockTime = 12 s

Time = 14s

smoothSolver:  Solving for Ux, Initial residual = 0.0430702, Final residual = 0.000808215, No Iterations 4
smoothSolver:  Solving for Uy, Initial residual = 0.0962875, Final residual = 0.0019474, No Iterations 4
smoothSolver:  Solving for Uz, Initial residual = 0.0925834, Final residual = 0.00185445, No Iterations 4
GAMG:  Solving for p, Initial residual = 0.00178134, Final residual = 1.55977e-05, No Iterations 6
time step continuity errors : sum local = 0.0155659, global = 0.00222375, cumulative = -0.0016928
smoothSolver:  Solving for nuTilda, Initial residual = 0.0190328, Final residual = 0.000718231, No Iterations 2
bounding nuTilda, min: -0.0062596 max: 0.0374649 average: 0.00125191
ExecutionTime = 12.4969 s  ClockTime = 12 s

Time = 15s

smoothSolver:  Solving for Ux, Initial residual = 0.0460444, Final residual = 0.00435885, No Iterations 2
smoothSolver:  Solving for Uy, Initial residual = 0.103876, Final residual = 0.00201964, No Iterations 4
smoothSolver:  Solving for Uz, Initial residual = 0.0972504, Final residual = 0.00183784, No Iterations 4
GAMG:  Solving for p, Initial residual = 0.000500732, Final residual = 3.67025e-06, No Iterations 5
time step continuity errors : sum local = 0.0131694, global = 0.000480617, cumulative = -0.00121218
smoothSolver:  Solving for nuTilda, Initial residual = 0.0177235, Final residual = 0.000681527, No Iterations 2
bounding nuTilda, min: -0.00632208 max: 0.0374448 average: 0.0013135
ExecutionTime = 13.0644 s  ClockTime = 13 s

Time = 16s

smoothSolver:  Solving for Ux, Initial residual = 0.0440475, Final residual = 0.004315, No Iterations 2
smoothSolver:  Solving for Uy, Initial residual = 0.0994778, Final residual = 0.00189976, No Iterations 4
smoothSolver:  Solving for Uz, Initial residual = 0.0907106, Final residual = 0.00164238, No Iterations 4
GAMG:  Solving for p, Initial residual = 0.000529761, Final residual = 4.62612e-06, No Iterations 5
time step continuity errors : sum local = 0.0151791, global = 0.00176341, cumulative = 0.000551227
smoothSolver:  Solving for nuTilda, Initial residual = 0.0166852, Final residual = 0.000654304, No Iterations 2
bounding nuTilda, min: -0.00627552 max: 0.0374539 average: 0.0013731
ExecutionTime = 13.704 s  ClockTime = 14 s

Time = 17s

smoothSolver:  Solving for Ux, Initial residual = 0.0377603, Final residual = 0.000642845, No Iterations 4
smoothSolver:  Solving for Uy, Initial residual = 0.0922616, Final residual = 0.00176123, No Iterations 4
smoothSolver:  Solving for Uz, Initial residual = 0.0817693, Final residual = 0.00156034, No Iterations 4
GAMG:  Solving for p, Initial residual = 0.00115708, Final residual = 9.49513e-06, No Iterations 5
time step continuity errors : sum local = 0.0137528, global = -0.00165678, cumulative = -0.00110555
smoothSolver:  Solving for nuTilda, Initial residual = 0.015826, Final residual = 0.000629071, No Iterations 2
bounding nuTilda, min: -0.00632929 max: 0.0374677 average: 0.00143049
ExecutionTime = 14.3134 s  ClockTime = 14 s

Time = 18s

smoothSolver:  Solving for Ux, Initial residual = 0.0367429, Final residual = 0.0035981, No Iterations 2
smoothSolver:  Solving for Uy, Initial residual = 0.0930246, Final residual = 0.00179436, No Iterations 4
smoothSolver:  Solving for Uz, Initial residual = 0.0822691, Final residual = 0.00156676, No Iterations 4
GAMG:  Solving for p, Initial residual = 0.0226156, Final residual = 0.000170047, No Iterations 5
time step continuity errors : sum local = 0.0124756, global = -9.79335e-05, cumulative = -0.00120349
smoothSolver:  Solving for nuTilda, Initial residual = 0.015056, Final residual = 0.000610373, No Iterations 2
bounding nuTilda, min: -0.00629035 max: 0.037476 average: 0.00148591
ExecutionTime = 14.9857 s  ClockTime = 15 s

Time = 19s

smoothSolver:  Solving for Ux, Initial residual = 0.0332265, Final residual = 0.00330983, No Iterations 2
smoothSolver:  Solving for Uy, Initial residual = 0.0953153, Final residual = 0.00189296, No Iterations 4
smoothSolver:  Solving for Uz, Initial residual = 0.0851808, Final residual = 0.00161886, No Iterations 4
GAMG:  Solving for p, Initial residual = 0.00359876, Final residual = 2.96124e-05, No Iterations 4
time step continuity errors : sum local = 0.0137414, global = -0.00209846, cumulative = -0.00330194
smoothSolver:  Solving for nuTilda, Initial residual = 0.0143775, Final residual = 0.000593486, No Iterations 2
bounding nuTilda, min: -0.00633045 max: 0.0374766 average: 0.00154017
ExecutionTime = 15.6301 s  ClockTime = 16 s

Time = 20s

smoothSolver:  Solving for Ux, Initial residual = 0.0307477, Final residual = 0.000534544, No Iterations 4
smoothSolver:  Solving for Uy, Initial residual = 0.0951893, Final residual = 0.00192931, No Iterations 4
smoothSolver:  Solving for Uz, Initial residual = 0.0843611, Final residual = 0.00168028, No Iterations 4
GAMG:  Solving for p, Initial residual = 0.00116729, Final residual = 9.96348e-06, No Iterations 4
time step continuity errors : sum local = 0.0144632, global = 0.000109033, cumulative = -0.00319291
smoothSolver:  Solving for nuTilda, Initial residual = 0.0137938, Final residual = 0.000579508, No Iterations 2
bounding nuTilda, min: -0.00628448 max: 0.0374711 average: 0.00159213
ExecutionTime = 16.4072 s  ClockTime = 16 s

Time = 21s

smoothSolver:  Solving for Ux, Initial residual = 0.0303578, Final residual = 0.00299071, No Iterations 2
smoothSolver:  Solving for Uy, Initial residual = 0.0938276, Final residual = 0.00192206, No Iterations 4
smoothSolver:  Solving for Uz, Initial residual = 0.0819774, Final residual = 0.00163122, No Iterations 4
GAMG:  Solving for p, Initial residual = 0.000636459, Final residual = 5.42036e-06, No Iterations 4
time step continuity errors : sum local = 0.014405, global = 0.00101658, cumulative = -0.00217633
smoothSolver:  Solving for nuTilda, Initial residual = 0.0132414, Final residual = 0.000566418, No Iterations 2
bounding nuTilda, min: -0.00632438 max: 0.0374784 average: 0.00164276
ExecutionTime = 17.2867 s  ClockTime = 17 s

Time = 22s

smoothSolver:  Solving for Ux, Initial residual = 0.0306305, Final residual = 0.00302369, No Iterations 2
smoothSolver:  Solving for Uy, Initial residual = 0.0916252, Final residual = 0.00189538, No Iterations 4
smoothSolver:  Solving for Uz, Initial residual = 0.0780463, Final residual = 0.00150081, No Iterations 4
GAMG:  Solving for p, Initial residual = 0.00054961, Final residual = 4.19021e-06, No Iterations 4
time step continuity errors : sum local = 0.0128161, global = 0.000836976, cumulative = -0.00133935
smoothSolver:  Solving for nuTilda, Initial residual = 0.012769, Final residual = 0.000555592, No Iterations 2
bounding nuTilda, min: -0.00628142 max: 0.0374838 average: 0.00169108
ExecutionTime = 17.9664 s  ClockTime = 18 s

Time = 23s

smoothSolver:  Solving for Ux, Initial residual = 0.0294491, Final residual = 0.000547168, No Iterations 4
smoothSolver:  Solving for Uy, Initial residual = 0.0906326, Final residual = 0.00186926, No Iterations 4
smoothSolver:  Solving for Uz, Initial residual = 0.0746621, Final residual = 0.0014321, No Iterations 4
GAMG:  Solving for p, Initial residual = 0.000620132, Final residual = 4.5694e-06, No Iterations 4
time step continuity errors : sum local = 0.0122271, global = -0.000584818, cumulative = -0.00192417
smoothSolver:  Solving for nuTilda, Initial residual = 0.0123593, Final residual = 0.000545942, No Iterations 2
bounding nuTilda, min: -0.00632711 max: 0.0374848 average: 0.00173805
ExecutionTime = 18.5265 s  ClockTime = 19 s

Time = 24s

smoothSolver:  Solving for Ux, Initial residual = 0.0270834, Final residual = 0.000537349, No Iterations 4
smoothSolver:  Solving for Uy, Initial residual = 0.0936937, Final residual = 0.00181403, No Iterations 4
smoothSolver:  Solving for Uz, Initial residual = 0.076361, Final residual = 0.00139047, No Iterations 4
GAMG:  Solving for p, Initial residual = 0.000767809, Final residual = 7.22604e-06, No Iterations 4
time step continuity errors : sum local = 0.015461, global = -0.0018386, cumulative = -0.00376277
smoothSolver:  Solving for nuTilda, Initial residual = 0.0119871, Final residual = 0.000537762, No Iterations 2
bounding nuTilda, min: -0.00628469 max: 0.0374844 average: 0.00178295
ExecutionTime = 19.2432 s  ClockTime = 19 s

Time = 25s

smoothSolver:  Solving for Ux, Initial residual = 0.0252187, Final residual = 0.000504745, No Iterations 4
smoothSolver:  Solving for Uy, Initial residual = 0.0960774, Final residual = 0.00177233, No Iterations 4
smoothSolver:  Solving for Uz, Initial residual = 0.0777617, Final residual = 0.00132816, No Iterations 4
GAMG:  Solving for p, Initial residual = 0.000813045, Final residual = 6.97534e-06, No Iterations 4
time step continuity errors : sum local = 0.0141656, global = -0.00159908, cumulative = -0.00536185
smoothSolver:  Solving for nuTilda, Initial residual = 0.0116575, Final residual = 0.000531489, No Iterations 2
bounding nuTilda, min: -0.00632794 max: 0.0374889 average: 0.00182702
ExecutionTime = 19.9123 s  ClockTime = 20 s

Time = 26s

smoothSolver:  Solving for Ux, Initial residual = 0.0246811, Final residual = 0.000457898, No Iterations 4
smoothSolver:  Solving for Uy, Initial residual = 0.0969298, Final residual = 0.00184312, No Iterations 4
smoothSolver:  Solving for Uz, Initial residual = 0.0778277, Final residual = 0.00134998, No Iterations 4
GAMG:  Solving for p, Initial residual = 0.000660332, Final residual = 4.43764e-06, No Iterations 4
time step continuity errors : sum local = 0.0109963, global = -0.000471487, cumulative = -0.00583334
smoothSolver:  Solving for nuTilda, Initial residual = 0.0113572, Final residual = 0.000524663, No Iterations 2
bounding nuTilda, min: -0.00628277 max: 0.037497 average: 0.00186923
ExecutionTime = 20.6074 s  ClockTime = 21 s

Time = 27s

smoothSolver:  Solving for Ux, Initial residual = 0.0242628, Final residual = 0.00234815, No Iterations 2
smoothSolver:  Solving for Uy, Initial residual = 0.0972911, Final residual = 0.00192597, No Iterations 4
smoothSolver:  Solving for Uz, Initial residual = 0.0778254, Final residual = 0.00139993, No Iterations 4
GAMG:  Solving for p, Initial residual = 0.000528475, Final residual = 3.35445e-06, No Iterations 4
time step continuity errors : sum local = 0.0103931, global = -8.49056e-05, cumulative = -0.00591824
smoothSolver:  Solving for nuTilda, Initial residual = 0.0110831, Final residual = 0.000517494, No Iterations 2
bounding nuTilda, min: -0.00632594 max: 0.0375002 average: 0.00191059
ExecutionTime = 21.2611 s  ClockTime = 21 s

Time = 28s

smoothSolver:  Solving for Ux, Initial residual = 0.0242018, Final residual = 0.00236974, No Iterations 2
smoothSolver:  Solving for Uy, Initial residual = 0.0967898, Final residual = 0.00188236, No Iterations 4
smoothSolver:  Solving for Uz, Initial residual = 0.0760969, Final residual = 0.00752732, No Iterations 2
GAMG:  Solving for p, Initial residual = 0.000470337, Final residual = 3.27963e-06, No Iterations 4
time step continuity errors : sum local = 0.0112543, global = -0.0003093, cumulative = -0.00622754
smoothSolver:  Solving for nuTilda, Initial residual = 0.0108623, Final residual = 0.000510078, No Iterations 2
bounding nuTilda, min: -0.0062817 max: 0.0375004 average: 0.00195019
ExecutionTime = 21.8309 s  ClockTime = 22 s

Time = 29s

smoothSolver:  Solving for Ux, Initial residual = 0.0238603, Final residual = 0.000457133, No Iterations 4
smoothSolver:  Solving for Uy, Initial residual = 0.0974634, Final residual = 0.00178519, No Iterations 4
smoothSolver:  Solving for Uz, Initial residual = 0.0764942, Final residual = 0.00735394, No Iterations 2
GAMG:  Solving for p, Initial residual = 0.000469205, Final residual = 3.2302e-06, No Iterations 4
time step continuity errors : sum local = 0.0109205, global = 1.78993e-05, cumulative = -0.00620964
smoothSolver:  Solving for nuTilda, Initial residual = 0.0106687, Final residual = 0.000503564, No Iterations 2
bounding nuTilda, min: -0.00632747 max: 0.0375038 average: 0.00198917
ExecutionTime = 22.4261 s  ClockTime = 22 s

Time = 30s

smoothSolver:  Solving for Ux, Initial residual = 0.0230167, Final residual = 0.0022603, No Iterations 2
smoothSolver:  Solving for Uy, Initial residual = 0.0992241, Final residual = 0.00975057, No Iterations 2
smoothSolver:  Solving for Uz, Initial residual = 0.0787233, Final residual = 0.00745844, No Iterations 2
GAMG:  Solving for p, Initial residual = 0.00047511, Final residual = 3.30241e-06, No Iterations 4
time step continuity errors : sum local = 0.0108258, global = -0.0003051, cumulative = -0.00651474
smoothSolver:  Solving for nuTilda, Initial residual = 0.0104846, Final residual = 0.000497176, No Iterations 2
bounding nuTilda, min: -0.00628372 max: 0.0375106 average: 0.00202675
ExecutionTime = 23.0391 s  ClockTime = 23 s

Time = 31s

smoothSolver:  Solving for Ux, Initial residual = 0.0230525, Final residual = 0.00221133, No Iterations 2
smoothSolver:  Solving for Uy, Initial residual = 0.101549, Final residual = 0.00972249, No Iterations 2
smoothSolver:  Solving for Uz, Initial residual = 0.0797097, Final residual = 0.0074726, No Iterations 2
GAMG:  Solving for p, Initial residual = 0.000496123, Final residual = 3.31457e-06, No Iterations 4
time step continuity errors : sum local = 0.0103753, global = -0.000518355, cumulative = -0.0070331
smoothSolver:  Solving for nuTilda, Initial residual = 0.0103223, Final residual = 0.000491659, No Iterations 2
bounding nuTilda, min: -0.00632725 max: 0.0375138 average: 0.00206397
ExecutionTime = 23.6436 s  ClockTime = 24 s

Time = 32s

smoothSolver:  Solving for Ux, Initial residual = 0.0233945, Final residual = 0.00218067, No Iterations 2
smoothSolver:  Solving for Uy, Initial residual = 0.101235, Final residual = 0.00957452, No Iterations 2
smoothSolver:  Solving for Uz, Initial residual = 0.0789219, Final residual = 0.00735, No Iterations 2
GAMG:  Solving for p, Initial residual = 0.000503615, Final residual = 2.94035e-06, No Iterations 4
time step continuity errors : sum local = 0.00912845, global = -0.000339537, cumulative = -0.00737263
smoothSolver:  Solving for nuTilda, Initial residual = 0.0101811, Final residual = 0.000486852, No Iterations 2
bounding nuTilda, min: -0.0062825 max: 0.0375149 average: 0.00209985
ExecutionTime = 24.2074 s  ClockTime = 24 s

Time = 33s

smoothSolver:  Solving for Ux, Initial residual = 0.0233703, Final residual = 0.00216398, No Iterations 2
smoothSolver:  Solving for Uy, Initial residual = 0.100264, Final residual = 0.00939166, No Iterations 2
smoothSolver:  Solving for Uz, Initial residual = 0.077807, Final residual = 0.00704049, No Iterations 2
GAMG:  Solving for p, Initial residual = 0.00046897, Final residual = 4.57451e-06, No Iterations 3
time step continuity errors : sum local = 0.0152293, global = -0.00105919, cumulative = -0.00843182
smoothSolver:  Solving for nuTilda, Initial residual = 0.0100528, Final residual = 0.000481079, No Iterations 2
bounding nuTilda, min: -0.00632654 max: 0.037519 average: 0.00213553
ExecutionTime = 24.7435 s  ClockTime = 25 s

Time = 34s

smoothSolver:  Solving for Ux, Initial residual = 0.0229528, Final residual = 0.00214972, No Iterations 2
smoothSolver:  Solving for Uy, Initial residual = 0.0986248, Final residual = 0.00903931, No Iterations 2
smoothSolver:  Solving for Uz, Initial residual = 0.0768016, Final residual = 0.0067672, No Iterations 2
GAMG:  Solving for p, Initial residual = 0.000429476, Final residual = 2.25732e-06, No Iterations 4
time step continuity errors : sum local = 0.00801685, global = -0.000301368, cumulative = -0.00873319
smoothSolver:  Solving for nuTilda, Initial residual = 0.00994265, Final residual = 0.00047495, No Iterations 2
bounding nuTilda, min: -0.00628236 max: 0.0375249 average: 0.00217022
ExecutionTime = 25.31 s  ClockTime = 25 s

Time = 35s

smoothSolver:  Solving for Ux, Initial residual = 0.0225116, Final residual = 0.00209927, No Iterations 2
smoothSolver:  Solving for Uy, Initial residual = 0.0978528, Final residual = 0.00865829, No Iterations 2
smoothSolver:  Solving for Uz, Initial residual = 0.0762114, Final residual = 0.00659251, No Iterations 2
GAMG:  Solving for p, Initial residual = 0.000366273, Final residual = 3.65667e-06, No Iterations 3
time step continuity errors : sum local = 0.0149229, global = 0.000404965, cumulative = -0.00832823
smoothSolver:  Solving for nuTilda, Initial residual = 0.00984705, Final residual = 0.000468463, No Iterations 2
bounding nuTilda, min: -0.00632701 max: 0.0375279 average: 0.00220524
ExecutionTime = 25.8788 s  ClockTime = 26 s

Time = 36s

smoothSolver:  Solving for Ux, Initial residual = 0.0223164, Final residual = 0.00204797, No Iterations 2
smoothSolver:  Solving for Uy, Initial residual = 0.0966063, Final residual = 0.00825107, No Iterations 2
smoothSolver:  Solving for Uz, Initial residual = 0.0752765, Final residual = 0.00636577, No Iterations 2
GAMG:  Solving for p, Initial residual = 0.000343685, Final residual = 1.80525e-06, No Iterations 4
time step continuity errors : sum local = 0.007848, global = 7.31287e-06, cumulative = -0.00832091
smoothSolver:  Solving for nuTilda, Initial residual = 0.00977219, Final residual = 0.000463411, No Iterations 2
bounding nuTilda, min: -0.00628303 max: 0.037529 average: 0.00223956
ExecutionTime = 26.5188 s  ClockTime = 27 s

Time = 37s

smoothSolver:  Solving for Ux, Initial residual = 0.022036, Final residual = 0.00199329, No Iterations 2
smoothSolver:  Solving for Uy, Initial residual = 0.0954608, Final residual = 0.00803332, No Iterations 2
smoothSolver:  Solving for Uz, Initial residual = 0.0737049, Final residual = 0.00613867, No Iterations 2
GAMG:  Solving for p, Initial residual = 0.000323635, Final residual = 1.78658e-06, No Iterations 4
time step continuity errors : sum local = 0.00813049, global = 0.000109291, cumulative = -0.00821162
smoothSolver:  Solving for nuTilda, Initial residual = 0.00970438, Final residual = 0.000459639, No Iterations 2
bounding nuTilda, min: -0.00632701 max: 0.0375352 average: 0.00227426
ExecutionTime = 27.1553 s  ClockTime = 27 s

Time = 38s

smoothSolver:  Solving for Ux, Initial residual = 0.0214533, Final residual = 0.00192843, No Iterations 2
smoothSolver:  Solving for Uy, Initial residual = 0.0939642, Final residual = 0.00798488, No Iterations 2
smoothSolver:  Solving for Uz, Initial residual = 0.0719868, Final residual = 0.00602099, No Iterations 2
GAMG:  Solving for p, Initial residual = 0.00030926, Final residual = 3.04346e-06, No Iterations 3
time step continuity errors : sum local = 0.014156, global = 0.000590721, cumulative = -0.0076209
smoothSolver:  Solving for nuTilda, Initial residual = 0.00964422, Final residual = 0.000455738, No Iterations 2
bounding nuTilda, min: -0.00628296 max: 0.0375397 average: 0.00230846
ExecutionTime = 27.8816 s  ClockTime = 28 s

Time = 39s

smoothSolver:  Solving for Ux, Initial residual = 0.020691, Final residual = 0.00186192, No Iterations 2
smoothSolver:  Solving for Uy, Initial residual = 0.0923612, Final residual = 0.00802032, No Iterations 2
smoothSolver:  Solving for Uz, Initial residual = 0.0709426, Final residual = 0.00601643, No Iterations 2
GAMG:  Solving for p, Initial residual = 0.000292618, Final residual = 2.92494e-06, No Iterations 3
time step continuity errors : sum local = 0.0141439, global = 2.3806e-05, cumulative = -0.00759709
smoothSolver:  Solving for nuTilda, Initial residual = 0.00958612, Final residual = 0.000453243, No Iterations 2
bounding nuTilda, min: -0.00632693 max: 0.0375419 average: 0.00234334
ExecutionTime = 28.4236 s  ClockTime = 28 s

Time = 40s

smoothSolver:  Solving for Ux, Initial residual = 0.0198947, Final residual = 0.00174612, No Iterations 2
smoothSolver:  Solving for Uy, Initial residual = 0.0897411, Final residual = 0.00801722, No Iterations 2
smoothSolver:  Solving for Uz, Initial residual = 0.0703432, Final residual = 0.00600716, No Iterations 2
GAMG:  Solving for p, Initial residual = 0.000279563, Final residual = 1.83599e-06, No Iterations 4
time step continuity errors : sum local = 0.00910971, global = -0.000199747, cumulative = -0.00779684
smoothSolver:  Solving for nuTilda, Initial residual = 0.00954238, Final residual = 0.000450566, No Iterations 2
bounding nuTilda, min: -0.00628314 max: 0.0375444 average: 0.00237799
ExecutionTime = 28.9802 s  ClockTime = 29 s

Time = 41s

smoothSolver:  Solving for Ux, Initial residual = 0.0194018, Final residual = 0.00165722, No Iterations 2
smoothSolver:  Solving for Uy, Initial residual = 0.0874569, Final residual = 0.00785299, No Iterations 2
smoothSolver:  Solving for Uz, Initial residual = 0.0694477, Final residual = 0.00601687, No Iterations 2
GAMG:  Solving for p, Initial residual = 0.00026807, Final residual = 2.60584e-06, No Iterations 3
time step continuity errors : sum local = 0.0131947, global = -0.000446386, cumulative = -0.00824323
smoothSolver:  Solving for nuTilda, Initial residual = 0.00951893, Final residual = 0.000447765, No Iterations 2
bounding nuTilda, min: -0.00632693 max: 0.0375505 average: 0.00241361
ExecutionTime = 29.5083 s  ClockTime = 29 s

Time = 42s

smoothSolver:  Solving for Ux, Initial residual = 0.0189913, Final residual = 0.00160322, No Iterations 2
smoothSolver:  Solving for Uy, Initial residual = 0.0857326, Final residual = 0.00765149, No Iterations 2
smoothSolver:  Solving for Uz, Initial residual = 0.068877, Final residual = 0.00595757, No Iterations 2
GAMG:  Solving for p, Initial residual = 0.000249333, Final residual = 1.39017e-06, No Iterations 4
time step continuity errors : sum local = 0.00743599, global = -0.000640066, cumulative = -0.00888329
smoothSolver:  Solving for nuTilda, Initial residual = 0.00951196, Final residual = 0.000445087, No Iterations 2
bounding nuTilda, min: -0.00628266 max: 0.037554 average: 0.00244931
ExecutionTime = 30.0532 s  ClockTime = 30 s

Time = 43s

smoothSolver:  Solving for Ux, Initial residual = 0.0185731, Final residual = 0.00155515, No Iterations 2
smoothSolver:  Solving for Uy, Initial residual = 0.0841072, Final residual = 0.00752586, No Iterations 2
smoothSolver:  Solving for Uz, Initial residual = 0.0678595, Final residual = 0.00580742, No Iterations 2
GAMG:  Solving for p, Initial residual = 0.000217938, Final residual = 2.15267e-06, No Iterations 3
time step continuity errors : sum local = 0.0128678, global = 0.000347721, cumulative = -0.00853557
smoothSolver:  Solving for nuTilda, Initial residual = 0.00951395, Final residual = 0.000441222, No Iterations 2
bounding nuTilda, min: -0.00632682 max: 0.0375559 average: 0.0024864
ExecutionTime = 30.6065 s  ClockTime = 31 s

Time = 44s

smoothSolver:  Solving for Ux, Initial residual = 0.0183477, Final residual = 0.00151059, No Iterations 2
smoothSolver:  Solving for Uy, Initial residual = 0.0824423, Final residual = 0.00733952, No Iterations 2
smoothSolver:  Solving for Uz, Initial residual = 0.0664281, Final residual = 0.00558189, No Iterations 2
GAMG:  Solving for p, Initial residual = 0.000200459, Final residual = 1.02253e-06, No Iterations 4
time step continuity errors : sum local = 0.00648626, global = -0.000194914, cumulative = -0.00873049
smoothSolver:  Solving for nuTilda, Initial residual = 0.00952856, Final residual = 0.000437274, No Iterations 2
bounding nuTilda, min: -0.00628258 max: 0.0375601 average: 0.00252357
ExecutionTime = 31.1571 s  ClockTime = 31 s

Time = 45s

smoothSolver:  Solving for Ux, Initial residual = 0.0181648, Final residual = 0.00147794, No Iterations 2
smoothSolver:  Solving for Uy, Initial residual = 0.080297, Final residual = 0.00718826, No Iterations 2
smoothSolver:  Solving for Uz, Initial residual = 0.0651669, Final residual = 0.00537891, No Iterations 2
GAMG:  Solving for p, Initial residual = 0.00018164, Final residual = 1.77559e-06, No Iterations 3
time step continuity errors : sum local = 0.0119655, global = 0.000839787, cumulative = -0.0078907
smoothSolver:  Solving for nuTilda, Initial residual = 0.00955378, Final residual = 0.000435027, No Iterations 2
bounding nuTilda, min: -0.00632685 max: 0.0375648 average: 0.0025619
ExecutionTime = 31.678 s  ClockTime = 32 s

Time = 46s

smoothSolver:  Solving for Ux, Initial residual = 0.0178047, Final residual = 0.00144095, No Iterations 2
smoothSolver:  Solving for Uy, Initial residual = 0.0777909, Final residual = 0.00712306, No Iterations 2
smoothSolver:  Solving for Uz, Initial residual = 0.0638482, Final residual = 0.00528427, No Iterations 2
GAMG:  Solving for p, Initial residual = 0.000168414, Final residual = 9.83353e-07, No Iterations 4
time step continuity errors : sum local = 0.00690243, global = 0.000174158, cumulative = -0.00771654
smoothSolver:  Solving for nuTilda, Initial residual = 0.00959215, Final residual = 0.000433263, No Iterations 2
bounding nuTilda, min: -0.00628294 max: 0.0375675 average: 0.00259997
ExecutionTime = 32.2442 s  ClockTime = 32 s

Time = 47s

smoothSolver:  Solving for Ux, Initial residual = 0.0172658, Final residual = 0.00137489, No Iterations 2
smoothSolver:  Solving for Uy, Initial residual = 0.0752091, Final residual = 0.00708765, No Iterations 2
smoothSolver:  Solving for Uz, Initial residual = 0.0622897, Final residual = 0.0051975, No Iterations 2
GAMG:  Solving for p, Initial residual = 0.000166385, Final residual = 8.16069e-07, No Iterations 4
time step continuity errors : sum local = 0.00566399, global = 0.000172602, cumulative = -0.00754394
smoothSolver:  Solving for nuTilda, Initial residual = 0.00963613, Final residual = 0.000434442, No Iterations 2
bounding nuTilda, min: -0.00632691 max: 0.037569 average: 0.00263899
ExecutionTime = 32.7683 s  ClockTime = 33 s

Time = 48s

smoothSolver:  Solving for Ux, Initial residual = 0.0167886, Final residual = 0.00132535, No Iterations 2
smoothSolver:  Solving for Uy, Initial residual = 0.0741826, Final residual = 0.00706835, No Iterations 2
smoothSolver:  Solving for Uz, Initial residual = 0.0603006, Final residual = 0.00510253, No Iterations 2
GAMG:  Solving for p, Initial residual = 0.000160345, Final residual = 1.59393e-06, No Iterations 3
time step continuity errors : sum local = 0.0112798, global = -4.16951e-05, cumulative = -0.00758564
smoothSolver:  Solving for nuTilda, Initial residual = 0.00968462, Final residual = 0.000434961, No Iterations 2
bounding nuTilda, min: -0.00628288 max: 0.037574 average: 0.00267774
ExecutionTime = 33.2845 s  ClockTime = 33 s

Time = 49s

smoothSolver:  Solving for Ux, Initial residual = 0.0163348, Final residual = 0.00130062, No Iterations 2
smoothSolver:  Solving for Uy, Initial residual = 0.0738756, Final residual = 0.00699107, No Iterations 2
smoothSolver:  Solving for Uz, Initial residual = 0.0581092, Final residual = 0.00492454, No Iterations 2
GAMG:  Solving for p, Initial residual = 0.000151574, Final residual = 8.01199e-07, No Iterations 4
time step continuity errors : sum local = 0.00586553, global = -0.000327104, cumulative = -0.00791274
smoothSolver:  Solving for nuTilda, Initial residual = 0.00974212, Final residual = 0.000435519, No Iterations 2
bounding nuTilda, min: -0.00632684 max: 0.0375775 average: 0.00271752
ExecutionTime = 33.8085 s  ClockTime = 34 s

Time = 50s

smoothSolver:  Solving for Ux, Initial residual = 0.0159575, Final residual = 0.00128422, No Iterations 2
smoothSolver:  Solving for Uy, Initial residual = 0.073214, Final residual = 0.00683154, No Iterations 2
smoothSolver:  Solving for Uz, Initial residual = 0.0561732, Final residual = 0.00474874, No Iterations 2
GAMG:  Solving for p, Initial residual = 0.000140673, Final residual = 7.82432e-07, No Iterations 4
time step continuity errors : sum local = 0.00601262, global = -0.000226622, cumulative = -0.00813936
smoothSolver:  Solving for nuTilda, Initial residual = 0.00980616, Final residual = 0.000436675, No Iterations 2
bounding nuTilda, min: -0.00628278 max: 0.0375796 average: 0.00275744
ExecutionTime = 34.3652 s  ClockTime = 34 s

Time = 51s

smoothSolver:  Solving for Ux, Initial residual = 0.0156169, Final residual = 0.00127356, No Iterations 2
smoothSolver:  Solving for Uy, Initial residual = 0.071925, Final residual = 0.00658118, No Iterations 2
smoothSolver:  Solving for Uz, Initial residual = 0.054774, Final residual = 0.00458267, No Iterations 2
GAMG:  Solving for p, Initial residual = 0.000129899, Final residual = 6.62394e-07, No Iterations 4
time step continuity errors : sum local = 0.00537965, global = -0.000203318, cumulative = -0.00834268
smoothSolver:  Solving for nuTilda, Initial residual = 0.00987577, Final residual = 0.000436276, No Iterations 2
bounding nuTilda, min: -0.00632694 max: 0.0375815 average: 0.00279899
ExecutionTime = 34.9404 s  ClockTime = 35 s

Time = 52s

smoothSolver:  Solving for Ux, Initial residual = 0.0151433, Final residual = 0.00124208, No Iterations 2
smoothSolver:  Solving for Uy, Initial residual = 0.0705088, Final residual = 0.00642715, No Iterations 2
smoothSolver:  Solving for Uz, Initial residual = 0.0538935, Final residual = 0.00455635, No Iterations 2
GAMG:  Solving for p, Initial residual = 0.000122863, Final residual = 1.19434e-06, No Iterations 3
time step continuity errors : sum local = 0.00998945, global = -7.76591e-05, cumulative = -0.00842034
smoothSolver:  Solving for nuTilda, Initial residual = 0.00995666, Final residual = 0.000435192, No Iterations 2
bounding nuTilda, min: -0.0062829 max: 0.0375857 average: 0.00284129
ExecutionTime = 35.4924 s  ClockTime = 35 s

Time = 53s

smoothSolver:  Solving for Ux, Initial residual = 0.0146848, Final residual = 0.00121084, No Iterations 2
smoothSolver:  Solving for Uy, Initial residual = 0.0695684, Final residual = 0.00638931, No Iterations 2
smoothSolver:  Solving for Uz, Initial residual = 0.0530868, Final residual = 0.0045761, No Iterations 2
GAMG:  Solving for p, Initial residual = 0.000116857, Final residual = 6.62985e-07, No Iterations 4
time step continuity errors : sum local = 0.00566493, global = -0.000116551, cumulative = -0.00853689
smoothSolver:  Solving for nuTilda, Initial residual = 0.0100597, Final residual = 0.000435352, No Iterations 2
bounding nuTilda, min: -0.00632698 max: 0.0375884 average: 0.00288564
ExecutionTime = 36.0223 s  ClockTime = 36 s

Time = 54s

smoothSolver:  Solving for Ux, Initial residual = 0.0143525, Final residual = 0.00119976, No Iterations 2
smoothSolver:  Solving for Uy, Initial residual = 0.0691616, Final residual = 0.00643243, No Iterations 2
smoothSolver:  Solving for Uz, Initial residual = 0.0521599, Final residual = 0.00459206, No Iterations 2
GAMG:  Solving for p, Initial residual = 0.000113726, Final residual = 1.13584e-06, No Iterations 3
time step continuity errors : sum local = 0.0097641, global = 6.90872e-05, cumulative = -0.0084678
smoothSolver:  Solving for nuTilda, Initial residual = 0.0101699, Final residual = 0.000435545, No Iterations 2
bounding nuTilda, min: -0.0062829 max: 0.03759 average: 0.00293097
ExecutionTime = 36.5477 s  ClockTime = 37 s

Time = 55s

smoothSolver:  Solving for Ux, Initial residual = 0.0140571, Final residual = 0.00119803, No Iterations 2
smoothSolver:  Solving for Uy, Initial residual = 0.0683564, Final residual = 0.00637495, No Iterations 2
smoothSolver:  Solving for Uz, Initial residual = 0.051072, Final residual = 0.00455394, No Iterations 2
GAMG:  Solving for p, Initial residual = 0.0001096, Final residual = 6.45179e-07, No Iterations 4
time step continuity errors : sum local = 0.0056148, global = -0.000319938, cumulative = -0.00878774
smoothSolver:  Solving for nuTilda, Initial residual = 0.0102729, Final residual = 0.000438324, No Iterations 2
bounding nuTilda, min: -0.00632684 max: 0.0375916 average: 0.00297824
ExecutionTime = 37.0834 s  ClockTime = 37 s

Time = 56s

smoothSolver:  Solving for Ux, Initial residual = 0.0138654, Final residual = 0.00120484, No Iterations 2
smoothSolver:  Solving for Uy, Initial residual = 0.0674716, Final residual = 0.00629479, No Iterations 2
smoothSolver:  Solving for Uz, Initial residual = 0.0502922, Final residual = 0.00449093, No Iterations 2
GAMG:  Solving for p, Initial residual = 0.000105297, Final residual = 6.10165e-07, No Iterations 4
time step continuity errors : sum local = 0.00537906, global = -0.000309225, cumulative = -0.00909697
smoothSolver:  Solving for nuTilda, Initial residual = 0.0103848, Final residual = 0.000439704, No Iterations 2
bounding nuTilda, min: -0.0062827 max: 0.0375947 average: 0.00302621
ExecutionTime = 37.6257 s  ClockTime = 38 s

Time = 57s

smoothSolver:  Solving for Ux, Initial residual = 0.0136686, Final residual = 0.00119403, No Iterations 2
smoothSolver:  Solving for Uy, Initial residual = 0.0669561, Final residual = 0.00625471, No Iterations 2
smoothSolver:  Solving for Uz, Initial residual = 0.0496859, Final residual = 0.00443095, No Iterations 2
GAMG:  Solving for p, Initial residual = 0.000101185, Final residual = 5.32518e-07, No Iterations 4
time step continuity errors : sum local = 0.00479679, global = -0.000210572, cumulative = -0.00930754
smoothSolver:  Solving for nuTilda, Initial residual = 0.0104899, Final residual = 0.000439192, No Iterations 2
bounding nuTilda, min: -0.00632682 max: 0.0375967 average: 0.00307585
ExecutionTime = 38.1955 s  ClockTime = 38 s

Time = 58s

smoothSolver:  Solving for Ux, Initial residual = 0.0134094, Final residual = 0.00117578, No Iterations 2
smoothSolver:  Solving for Uy, Initial residual = 0.0668569, Final residual = 0.00624434, No Iterations 2
smoothSolver:  Solving for Uz, Initial residual = 0.0493072, Final residual = 0.00444082, No Iterations 2
GAMG:  Solving for p, Initial residual = 9.70767e-05, Final residual = 5.05335e-07, No Iterations 4
time step continuity errors : sum local = 0.00461497, global = -0.000204677, cumulative = -0.00951221
smoothSolver:  Solving for nuTilda, Initial residual = 0.0105772, Final residual = 0.000439251, No Iterations 2
bounding nuTilda, min: -0.00628275 max: 0.0375979 average: 0.00312591
ExecutionTime = 38.8132 s  ClockTime = 39 s

Time = 59s

smoothSolver:  Solving for Ux, Initial residual = 0.0131468, Final residual = 0.00116317, No Iterations 2
smoothSolver:  Solving for Uy, Initial residual = 0.0672131, Final residual = 0.00624438, No Iterations 2
smoothSolver:  Solving for Uz, Initial residual = 0.049343, Final residual = 0.00445856, No Iterations 2
GAMG:  Solving for p, Initial residual = 9.33393e-05, Final residual = 5.22724e-07, No Iterations 4
time step continuity errors : sum local = 0.00481913, global = -0.000173138, cumulative = -0.00968535
smoothSolver:  Solving for nuTilda, Initial residual = 0.0106809, Final residual = 0.000440052, No Iterations 2
bounding nuTilda, min: -0.00632687 max: 0.0375986 average: 0.00317744
ExecutionTime = 39.7472 s  ClockTime = 40 s

Time = 60s

smoothSolver:  Solving for Ux, Initial residual = 0.0128632, Final residual = 0.00114567, No Iterations 2
smoothSolver:  Solving for Uy, Initial residual = 0.0670851, Final residual = 0.00621477, No Iterations 2
smoothSolver:  Solving for Uz, Initial residual = 0.0493736, Final residual = 0.00448264, No Iterations 2
GAMG:  Solving for p, Initial residual = 8.9907e-05, Final residual = 5.45297e-07, No Iterations 4
time step continuity errors : sum local = 0.00504702, global = -0.000154775, cumulative = -0.00984013
smoothSolver:  Solving for nuTilda, Initial residual = 0.0107606, Final residual = 0.000439242, No Iterations 2
bounding nuTilda, min: -0.00628292 max: 0.0376007 average: 0.00322925
ExecutionTime = 40.6214 s  ClockTime = 41 s

Time = 61s

smoothSolver:  Solving for Ux, Initial residual = 0.0125782, Final residual = 0.00113097, No Iterations 2
smoothSolver:  Solving for Uy, Initial residual = 0.0661359, Final residual = 0.00615797, No Iterations 2
smoothSolver:  Solving for Uz, Initial residual = 0.0490594, Final residual = 0.00447983, No Iterations 2
GAMG:  Solving for p, Initial residual = 8.5717e-05, Final residual = 4.99506e-07, No Iterations 4
time step continuity errors : sum local = 0.00464476, global = -0.000170985, cumulative = -0.0100111
smoothSolver:  Solving for nuTilda, Initial residual = 0.0108382, Final residual = 0.000440246, No Iterations 2
bounding nuTilda, min: -0.00632693 max: 0.0376022 average: 0.00328264
ExecutionTime = 41.3335 s  ClockTime = 41 s

Time = 62s

smoothSolver:  Solving for Ux, Initial residual = 0.0122981, Final residual = 0.00111943, No Iterations 2
smoothSolver:  Solving for Uy, Initial residual = 0.0648843, Final residual = 0.0060676, No Iterations 2
smoothSolver:  Solving for Uz, Initial residual = 0.0486719, Final residual = 0.0044468, No Iterations 2
GAMG:  Solving for p, Initial residual = 8.20139e-05, Final residual = 4.45228e-07, No Iterations 4
time step continuity errors : sum local = 0.00416576, global = -0.000147605, cumulative = -0.0101587
smoothSolver:  Solving for nuTilda, Initial residual = 0.010899, Final residual = 0.000438922, No Iterations 2
bounding nuTilda, min: -0.00628288 max: 0.037603 average: 0.00333658
ExecutionTime = 42.0072 s  ClockTime = 42 s

Time = 63s

smoothSolver:  Solving for Ux, Initial residual = 0.0119582, Final residual = 0.00110379, No Iterations 2
smoothSolver:  Solving for Uy, Initial residual = 0.0641643, Final residual = 0.00607612, No Iterations 2
smoothSolver:  Solving for Uz, Initial residual = 0.0482419, Final residual = 0.00446181, No Iterations 2
GAMG:  Solving for p, Initial residual = 7.93693e-05, Final residual = 4.23361e-07, No Iterations 4
time step continuity errors : sum local = 0.00398086, global = -0.00020538, cumulative = -0.0103641
smoothSolver:  Solving for nuTilda, Initial residual = 0.0109515, Final residual = 0.000440402, No Iterations 2
bounding nuTilda, min: -0.00632692 max: 0.0386901 average: 0.00339218
ExecutionTime = 42.7395 s  ClockTime = 43 s

Time = 64s

smoothSolver:  Solving for Ux, Initial residual = 0.0115871, Final residual = 0.00107362, No Iterations 2
smoothSolver:  Solving for Uy, Initial residual = 0.0637714, Final residual = 0.00609579, No Iterations 2
smoothSolver:  Solving for Uz, Initial residual = 0.0477134, Final residual = 0.00448386, No Iterations 2
GAMG:  Solving for p, Initial residual = 7.7265e-05, Final residual = 4.23136e-07, No Iterations 4
time step continuity errors : sum local = 0.00400653, global = -0.000169265, cumulative = -0.0105334
smoothSolver:  Solving for nuTilda, Initial residual = 0.0109981, Final residual = 0.000441741, No Iterations 2
bounding nuTilda, min: -0.00628284 max: 0.0398248 average: 0.00344832
ExecutionTime = 43.7435 s  ClockTime = 44 s

Time = 65s

smoothSolver:  Solving for Ux, Initial residual = 0.011257, Final residual = 0.00105155, No Iterations 2
smoothSolver:  Solving for Uy, Initial residual = 0.0630753, Final residual = 0.00604386, No Iterations 2
smoothSolver:  Solving for Uz, Initial residual = 0.0472875, Final residual = 0.00451025, No Iterations 2
GAMG:  Solving for p, Initial residual = 7.62648e-05, Final residual = 4.1015e-07, No Iterations 4
time step continuity errors : sum local = 0.0038966, global = -2.51593e-05, cumulative = -0.0105585
smoothSolver:  Solving for nuTilda, Initial residual = 0.0110334, Final residual = 0.00043896, No Iterations 2
bounding nuTilda, min: -0.0063269 max: 0.0410125 average: 0.00350613
ExecutionTime = 44.5575 s  ClockTime = 45 s

Time = 66s

smoothSolver:  Solving for Ux, Initial residual = 0.0109706, Final residual = 0.00102909, No Iterations 2
smoothSolver:  Solving for Uy, Initial residual = 0.0617637, Final residual = 0.00595475, No Iterations 2
smoothSolver:  Solving for Uz, Initial residual = 0.0466929, Final residual = 0.00453336, No Iterations 2
GAMG:  Solving for p, Initial residual = 7.57742e-05, Final residual = 4.08312e-07, No Iterations 4
time step continuity errors : sum local = 0.00387112, global = 9.42734e-05, cumulative = -0.0104642
smoothSolver:  Solving for nuTilda, Initial residual = 0.0110691, Final residual = 0.000439489, No Iterations 2
bounding nuTilda, min: -0.00628286 max: 0.0420685 average: 0.00356459
ExecutionTime = 45.3301 s  ClockTime = 45 s

Time = 67s

smoothSolver:  Solving for Ux, Initial residual = 0.0107357, Final residual = 0.00100909, No Iterations 2
smoothSolver:  Solving for Uy, Initial residual = 0.0601751, Final residual = 0.00587561, No Iterations 2
smoothSolver:  Solving for Uz, Initial residual = 0.0460717, Final residual = 0.00454496, No Iterations 2
GAMG:  Solving for p, Initial residual = 7.54998e-05, Final residual = 4.21038e-07, No Iterations 4
time step continuity errors : sum local = 0.00399779, global = 0.000139464, cumulative = -0.0103248
smoothSolver:  Solving for nuTilda, Initial residual = 0.011101, Final residual = 0.00044241, No Iterations 2
bounding nuTilda, min: -0.00632683 max: 0.0431314 average: 0.00362442
ExecutionTime = 46.0354 s  ClockTime = 46 s

Time = 68s

smoothSolver:  Solving for Ux, Initial residual = 0.0104588, Final residual = 0.000990622, No Iterations 2
smoothSolver:  Solving for Uy, Initial residual = 0.0590663, Final residual = 0.00576811, No Iterations 2
smoothSolver:  Solving for Uz, Initial residual = 0.0456669, Final residual = 0.00449806, No Iterations 2
GAMG:  Solving for p, Initial residual = 7.49465e-05, Final residual = 4.23641e-07, No Iterations 4
time step continuity errors : sum local = 0.00404388, global = 0.000168256, cumulative = -0.0101565
smoothSolver:  Solving for nuTilda, Initial residual = 0.0111053, Final residual = 0.000442215, No Iterations 2
bounding nuTilda, min: -0.00628272 max: 0.0441578 average: 0.00368423
ExecutionTime = 47.1816 s  ClockTime = 47 s

Time = 69s

smoothSolver:  Solving for Ux, Initial residual = 0.0101313, Final residual = 0.000956972, No Iterations 2
smoothSolver:  Solving for Uy, Initial residual = 0.0585248, Final residual = 0.00568841, No Iterations 2
smoothSolver:  Solving for Uz, Initial residual = 0.0452484, Final residual = 0.00442134, No Iterations 2
GAMG:  Solving for p, Initial residual = 7.45592e-05, Final residual = 4.04803e-07, No Iterations 4
time step continuity errors : sum local = 0.00389416, global = 0.00022671, cumulative = -0.00992982
smoothSolver:  Solving for nuTilda, Initial residual = 0.0111059, Final residual = 0.000441107, No Iterations 2
bounding nuTilda, min: -0.00632685 max: 0.0450664 average: 0.00374482
ExecutionTime = 48.0792 s  ClockTime = 48 s

Time = 70s

smoothSolver:  Solving for Ux, Initial residual = 0.00979026, Final residual = 0.000927916, No Iterations 2
smoothSolver:  Solving for Uy, Initial residual = 0.0575592, Final residual = 0.00568394, No Iterations 2
smoothSolver:  Solving for Uz, Initial residual = 0.0443446, Final residual = 0.00436712, No Iterations 2
GAMG:  Solving for p, Initial residual = 7.36237e-05, Final residual = 3.76068e-07, No Iterations 4
time step continuity errors : sum local = 0.00359117, global = 0.000212365, cumulative = -0.00971745
smoothSolver:  Solving for nuTilda, Initial residual = 0.0110781, Final residual = 0.00044121, No Iterations 2
bounding nuTilda, min: -0.00628276 max: 0.0459839 average: 0.00380485
ExecutionTime = 48.7171 s  ClockTime = 49 s

Time = 71s

smoothSolver:  Solving for Ux, Initial residual = 0.00950896, Final residual = 0.000906921, No Iterations 2
smoothSolver:  Solving for Uy, Initial residual = 0.0559922, Final residual = 0.000906968, No Iterations 4
smoothSolver:  Solving for Uz, Initial residual = 0.0427354, Final residual = 0.00419169, No Iterations 2
GAMG:  Solving for p, Initial residual = 7.37827e-05, Final residual = 3.83976e-07, No Iterations 4
time step continuity errors : sum local = 0.00359391, global = 0.000167869, cumulative = -0.00954958
smoothSolver:  Solving for nuTilda, Initial residual = 0.0110452, Final residual = 0.000439928, No Iterations 2
bounding nuTilda, min: -0.00632689 max: 0.0468592 average: 0.00386527
ExecutionTime = 49.3683 s  ClockTime = 49 s

Time = 72s

smoothSolver:  Solving for Ux, Initial residual = 0.00932446, Final residual = 0.000880354, No Iterations 2
smoothSolver:  Solving for Uy, Initial residual = 0.0529443, Final residual = 0.00529383, No Iterations 2
smoothSolver:  Solving for Uz, Initial residual = 0.0408726, Final residual = 0.00401927, No Iterations 2
GAMG:  Solving for p, Initial residual = 7.35079e-05, Final residual = 3.80587e-07, No Iterations 4
time step continuity errors : sum local = 0.00352817, global = 0.000173398, cumulative = -0.00937619
smoothSolver:  Solving for nuTilda, Initial residual = 0.0110043, Final residual = 0.000439374, No Iterations 2
bounding nuTilda, min: -0.00628289 max: 0.0478027 average: 0.00392512
ExecutionTime = 49.9807 s  ClockTime = 50 s

Time = 73s

smoothSolver:  Solving for Ux, Initial residual = 0.00908026, Final residual = 0.00085113, No Iterations 2
smoothSolver:  Solving for Uy, Initial residual = 0.0513542, Final residual = 0.000831979, No Iterations 4
smoothSolver:  Solving for Uz, Initial residual = 0.0395678, Final residual = 0.00395474, No Iterations 2
GAMG:  Solving for p, Initial residual = 7.11082e-05, Final residual = 3.54834e-07, No Iterations 4
time step continuity errors : sum local = 0.00330594, global = 0.000173094, cumulative = -0.00920309
smoothSolver:  Solving for nuTilda, Initial residual = 0.0109618, Final residual = 0.00043686, No Iterations 2
bounding nuTilda, min: -0.00632688 max: 0.048869 average: 0.00398593
ExecutionTime = 50.634 s  ClockTime = 51 s

Time = 74s

smoothSolver:  Solving for Ux, Initial residual = 0.00878041, Final residual = 0.00082555, No Iterations 2
smoothSolver:  Solving for Uy, Initial residual = 0.0496642, Final residual = 0.000799048, No Iterations 4
smoothSolver:  Solving for Uz, Initial residual = 0.0388961, Final residual = 0.00388056, No Iterations 2
GAMG:  Solving for p, Initial residual = 6.98624e-05, Final residual = 6.83985e-07, No Iterations 3
time step continuity errors : sum local = 0.00645464, global = 3.80767e-05, cumulative = -0.00916502
smoothSolver:  Solving for nuTilda, Initial residual = 0.0109211, Final residual = 0.00043151, No Iterations 2
bounding nuTilda, min: -0.0062829 max: 0.0498326 average: 0.0040467
ExecutionTime = 51.2369 s  ClockTime = 51 s

Time = 75s

smoothSolver:  Solving for Ux, Initial residual = 0.00847605, Final residual = 0.000800233, No Iterations 2
smoothSolver:  Solving for Uy, Initial residual = 0.0486073, Final residual = 0.00485458, No Iterations 2
smoothSolver:  Solving for Uz, Initial residual = 0.0382664, Final residual = 0.00375138, No Iterations 2
GAMG:  Solving for p, Initial residual = 6.86065e-05, Final residual = 3.3452e-07, No Iterations 4
time step continuity errors : sum local = 0.00317852, global = 5.05822e-05, cumulative = -0.00911443
smoothSolver:  Solving for nuTilda, Initial residual = 0.0108796, Final residual = 0.000429845, No Iterations 2
bounding nuTilda, min: -0.00632692 max: 0.0507368 average: 0.00410872
ExecutionTime = 51.8303 s  ClockTime = 52 s

Time = 76s

smoothSolver:  Solving for Ux, Initial residual = 0.00818566, Final residual = 0.000769014, No Iterations 2
smoothSolver:  Solving for Uy, Initial residual = 0.0484011, Final residual = 0.00481223, No Iterations 2
smoothSolver:  Solving for Uz, Initial residual = 0.0373138, Final residual = 0.00362637, No Iterations 2
GAMG:  Solving for p, Initial residual = 6.71491e-05, Final residual = 6.56558e-07, No Iterations 3
time step continuity errors : sum local = 0.00626249, global = 0.000183789, cumulative = -0.00893064
smoothSolver:  Solving for nuTilda, Initial residual = 0.0108431, Final residual = 0.000427899, No Iterations 2
bounding nuTilda, min: -0.00628283 max: 0.0516115 average: 0.00417078
ExecutionTime = 52.5728 s  ClockTime = 53 s

Time = 77s

smoothSolver:  Solving for Ux, Initial residual = 0.00789184, Final residual = 0.000744346, No Iterations 2
smoothSolver:  Solving for Uy, Initial residual = 0.0479547, Final residual = 0.00478268, No Iterations 2
smoothSolver:  Solving for Uz, Initial residual = 0.0358009, Final residual = 0.00352954, No Iterations 2
GAMG:  Solving for p, Initial residual = 6.58515e-05, Final residual = 6.38229e-07, No Iterations 3
time step continuity errors : sum local = 0.0060965, global = 0.000209428, cumulative = -0.00872122
smoothSolver:  Solving for nuTilda, Initial residual = 0.0108115, Final residual = 0.000422831, No Iterations 2
bounding nuTilda, min: -0.00632691 max: 0.0523372 average: 0.00423369
ExecutionTime = 53.1606 s  ClockTime = 53 s

Time = 78s

smoothSolver:  Solving for Ux, Initial residual = 0.00756924, Final residual = 0.000720727, No Iterations 2
smoothSolver:  Solving for Uy, Initial residual = 0.0471485, Final residual = 0.000761782, No Iterations 4
smoothSolver:  Solving for Uz, Initial residual = 0.0342715, Final residual = 0.000534714, No Iterations 4
GAMG:  Solving for p, Initial residual = 6.35937e-05, Final residual = 6.13586e-07, No Iterations 3
time step continuity errors : sum local = 0.00590293, global = 0.000258095, cumulative = -0.00846312
smoothSolver:  Solving for nuTilda, Initial residual = 0.0107723, Final residual = 0.000417422, No Iterations 2
bounding nuTilda, min: -0.00628282 max: 0.0536037 average: 0.00429632
ExecutionTime = 53.7826 s  ClockTime = 54 s

Time = 79s

smoothSolver:  Solving for Ux, Initial residual = 0.007305, Final residual = 0.00070812, No Iterations 2
smoothSolver:  Solving for Uy, Initial residual = 0.0454365, Final residual = 0.000725546, No Iterations 4
smoothSolver:  Solving for Uz, Initial residual = 0.0324705, Final residual = 0.000502044, No Iterations 4
GAMG:  Solving for p, Initial residual = 6.03131e-05, Final residual = 5.85879e-07, No Iterations 3
time step continuity errors : sum local = 0.00567737, global = 0.000306627, cumulative = -0.00815649
smoothSolver:  Solving for nuTilda, Initial residual = 0.0107148, Final residual = 0.000414847, No Iterations 2
bounding nuTilda, min: -0.00632682 max: 0.0549617 average: 0.00435955
ExecutionTime = 54.4297 s  ClockTime = 54 s

Time = 80s

smoothSolver:  Solving for Ux, Initial residual = 0.00704195, Final residual = 0.000694972, No Iterations 2
smoothSolver:  Solving for Uy, Initial residual = 0.0438484, Final residual = 0.000692272, No Iterations 4
smoothSolver:  Solving for Uz, Initial residual = 0.0312748, Final residual = 0.000467627, No Iterations 4
GAMG:  Solving for p, Initial residual = 5.87586e-05, Final residual = 5.76687e-07, No Iterations 3
time step continuity errors : sum local = 0.00558367, global = 0.000321196, cumulative = -0.0078353
smoothSolver:  Solving for nuTilda, Initial residual = 0.0106476, Final residual = 0.000411653, No Iterations 2
bounding nuTilda, min: -0.00628277 max: 0.0562463 average: 0.00442228
ExecutionTime = 55.1366 s  ClockTime = 55 s

Time = 81s

smoothSolver:  Solving for Ux, Initial residual = 0.00679434, Final residual = 0.000673536, No Iterations 2
smoothSolver:  Solving for Uy, Initial residual = 0.0423965, Final residual = 0.000665033, No Iterations 4
smoothSolver:  Solving for Uz, Initial residual = 0.0303005, Final residual = 0.00296602, No Iterations 2
GAMG:  Solving for p, Initial residual = 5.63468e-05, Final residual = 3.35862e-07, No Iterations 4
time step continuity errors : sum local = 0.00324315, global = 5.4021e-05, cumulative = -0.00778128
smoothSolver:  Solving for nuTilda, Initial residual = 0.0105876, Final residual = 0.000408605, No Iterations 2
bounding nuTilda, min: -0.00632686 max: 0.0574395 average: 0.00448565
ExecutionTime = 55.6999 s  ClockTime = 56 s

Time = 82s

smoothSolver:  Solving for Ux, Initial residual = 0.00659662, Final residual = 0.000641118, No Iterations 2
smoothSolver:  Solving for Uy, Initial residual = 0.0408069, Final residual = 0.000640735, No Iterations 4
smoothSolver:  Solving for Uz, Initial residual = 0.029884, Final residual = 0.00291057, No Iterations 2
GAMG:  Solving for p, Initial residual = 5.34748e-05, Final residual = 4.85441e-07, No Iterations 3
time step continuity errors : sum local = 0.00468328, global = 0.000194672, cumulative = -0.0075866
smoothSolver:  Solving for nuTilda, Initial residual = 0.010511, Final residual = 0.000406149, No Iterations 2
bounding nuTilda, min: -0.00628281 max: 0.0584422 average: 0.00454921
ExecutionTime = 56.2471 s  ClockTime = 56 s

Time = 83s

smoothSolver:  Solving for Ux, Initial residual = 0.00639238, Final residual = 0.000620324, No Iterations 2
smoothSolver:  Solving for Uy, Initial residual = 0.0392916, Final residual = 0.000618189, No Iterations 4
smoothSolver:  Solving for Uz, Initial residual = 0.0291251, Final residual = 0.00286855, No Iterations 2
GAMG:  Solving for p, Initial residual = 5.11205e-05, Final residual = 4.73599e-07, No Iterations 3
time step continuity errors : sum local = 0.00455429, global = 0.000110656, cumulative = -0.00747595
smoothSolver:  Solving for nuTilda, Initial residual = 0.010441, Final residual = 0.000401235, No Iterations 2
bounding nuTilda, min: -0.00632688 max: 0.0594883 average: 0.0046143
ExecutionTime = 56.7676 s  ClockTime = 57 s

Time = 84s

smoothSolver:  Solving for Ux, Initial residual = 0.00620484, Final residual = 0.000605516, No Iterations 2
smoothSolver:  Solving for Uy, Initial residual = 0.0383426, Final residual = 0.000599472, No Iterations 4
smoothSolver:  Solving for Uz, Initial residual = 0.0282514, Final residual = 0.00279626, No Iterations 2
GAMG:  Solving for p, Initial residual = 4.97022e-05, Final residual = 4.78771e-07, No Iterations 3
time step continuity errors : sum local = 0.0045829, global = 2.56185e-05, cumulative = -0.00745033
smoothSolver:  Solving for nuTilda, Initial residual = 0.0103803, Final residual = 0.000397184, No Iterations 2
bounding nuTilda, min: -0.00628285 max: 0.0605588 average: 0.00467996
ExecutionTime = 57.2663 s  ClockTime = 57 s

Time = 85s

smoothSolver:  Solving for Ux, Initial residual = 0.00603041, Final residual = 0.000587197, No Iterations 2
smoothSolver:  Solving for Uy, Initial residual = 0.0377358, Final residual = 0.000603076, No Iterations 4
smoothSolver:  Solving for Uz, Initial residual = 0.027337, Final residual = 0.00270604, No Iterations 2
GAMG:  Solving for p, Initial residual = 4.89217e-05, Final residual = 4.85923e-07, No Iterations 3
time step continuity errors : sum local = 0.00463112, global = -5.53817e-05, cumulative = -0.00750571
smoothSolver:  Solving for nuTilda, Initial residual = 0.010338, Final residual = 0.000395401, No Iterations 2
bounding nuTilda, min: -0.00632687 max: 0.0616105 average: 0.00474703
ExecutionTime = 57.7717 s  ClockTime = 58 s

Time = 86s

smoothSolver:  Solving for Ux, Initial residual = 0.00586072, Final residual = 0.00056863, No Iterations 2
smoothSolver:  Solving for Uy, Initial residual = 0.0373229, Final residual = 0.000610996, No Iterations 4
smoothSolver:  Solving for Uz, Initial residual = 0.0265091, Final residual = 0.00264235, No Iterations 2
GAMG:  Solving for p, Initial residual = 4.92907e-05, Final residual = 4.89841e-07, No Iterations 3
time step continuity errors : sum local = 0.00457421, global = -8.41934e-05, cumulative = -0.0075899
smoothSolver:  Solving for nuTilda, Initial residual = 0.0102817, Final residual = 0.000392597, No Iterations 2
bounding nuTilda, min: -0.00628283 max: 0.0626409 average: 0.00481439
ExecutionTime = 58.2796 s  ClockTime = 58 s

Time = 87s

smoothSolver:  Solving for Ux, Initial residual = 0.00567689, Final residual = 0.000548219, No Iterations 2
smoothSolver:  Solving for Uy, Initial residual = 0.0367753, Final residual = 0.000599164, No Iterations 4
smoothSolver:  Solving for Uz, Initial residual = 0.0257477, Final residual = 0.000382971, No Iterations 4
GAMG:  Solving for p, Initial residual = 4.91704e-05, Final residual = 2.28448e-07, No Iterations 4
time step continuity errors : sum local = 0.00211154, global = -7.45339e-05, cumulative = -0.00766444
smoothSolver:  Solving for nuTilda, Initial residual = 0.010246, Final residual = 0.000389324, No Iterations 2
bounding nuTilda, min: -0.00632692 max: 0.0636373 average: 0.00488274
ExecutionTime = 58.8594 s  ClockTime = 59 s

Time = 88s

smoothSolver:  Solving for Ux, Initial residual = 0.00553181, Final residual = 0.000530279, No Iterations 2
smoothSolver:  Solving for Uy, Initial residual = 0.0362099, Final residual = 0.000584842, No Iterations 4
smoothSolver:  Solving for Uz, Initial residual = 0.0244757, Final residual = 0.00240258, No Iterations 2
GAMG:  Solving for p, Initial residual = 4.67379e-05, Final residual = 4.47752e-07, No Iterations 3
time step continuity errors : sum local = 0.00414092, global = -0.000100587, cumulative = -0.00776503
smoothSolver:  Solving for nuTilda, Initial residual = 0.010211, Final residual = 0.000387708, No Iterations 2
bounding nuTilda, min: -0.0062829 max: 0.0645103 average: 0.0049512
ExecutionTime = 59.3746 s  ClockTime = 59 s

Time = 89s

smoothSolver:  Solving for Ux, Initial residual = 0.00539013, Final residual = 0.000514703, No Iterations 2
smoothSolver:  Solving for Uy, Initial residual = 0.0356361, Final residual = 0.000571301, No Iterations 4
smoothSolver:  Solving for Uz, Initial residual = 0.0239532, Final residual = 0.00232898, No Iterations 2
GAMG:  Solving for p, Initial residual = 4.5156e-05, Final residual = 4.33149e-07, No Iterations 3
time step continuity errors : sum local = 0.00402235, global = -9.03156e-05, cumulative = -0.00785534
smoothSolver:  Solving for nuTilda, Initial residual = 0.0101644, Final residual = 0.000385595, No Iterations 2
bounding nuTilda, min: -0.00632693 max: 0.0653487 average: 0.00502063
ExecutionTime = 59.8889 s  ClockTime = 60 s

Time = 90s

smoothSolver:  Solving for Ux, Initial residual = 0.00526052, Final residual = 0.000498377, No Iterations 2
smoothSolver:  Solving for Uy, Initial residual = 0.0352671, Final residual = 0.000565685, No Iterations 4
smoothSolver:  Solving for Uz, Initial residual = 0.0234911, Final residual = 0.00226118, No Iterations 2
GAMG:  Solving for p, Initial residual = 4.4389e-05, Final residual = 2.00806e-07, No Iterations 4
time step continuity errors : sum local = 0.00187919, global = 8.14557e-05, cumulative = -0.00777389
smoothSolver:  Solving for nuTilda, Initial residual = 0.0101176, Final residual = 0.000383271, No Iterations 2
bounding nuTilda, min: -0.00628284 max: 0.0662761 average: 0.00509003
ExecutionTime = 60.4401 s  ClockTime = 60 s

Time = 91s

smoothSolver:  Solving for Ux, Initial residual = 0.005157, Final residual = 0.000485612, No Iterations 2
smoothSolver:  Solving for Uy, Initial residual = 0.0349551, Final residual = 0.000568911, No Iterations 4
smoothSolver:  Solving for Uz, Initial residual = 0.0228822, Final residual = 0.00220319, No Iterations 2
GAMG:  Solving for p, Initial residual = 4.40224e-05, Final residual = 4.3131e-07, No Iterations 3
time step continuity errors : sum local = 0.00404422, global = 9.1385e-05, cumulative = -0.0076825
smoothSolver:  Solving for nuTilda, Initial residual = 0.0100679, Final residual = 0.000381018, No Iterations 2
bounding nuTilda, min: -0.00632682 max: 0.0672018 average: 0.00516082
ExecutionTime = 60.9475 s  ClockTime = 61 s

Time = 92s

smoothSolver:  Solving for Ux, Initial residual = 0.0050682, Final residual = 0.000475128, No Iterations 2
smoothSolver:  Solving for Uy, Initial residual = 0.0345052, Final residual = 0.000565447, No Iterations 4
smoothSolver:  Solving for Uz, Initial residual = 0.0218691, Final residual = 0.00212238, No Iterations 2
GAMG:  Solving for p, Initial residual = 4.33019e-05, Final residual = 2.23491e-07, No Iterations 4
time step continuity errors : sum local = 0.00209723, global = 6.75328e-05, cumulative = -0.00761497
smoothSolver:  Solving for nuTilda, Initial residual = 0.0100229, Final residual = 0.000379313, No Iterations 2
bounding nuTilda, min: -0.00628271 max: 0.0681633 average: 0.00523225
ExecutionTime = 61.5348 s  ClockTime = 62 s

Time = 93s

smoothSolver:  Solving for Ux, Initial residual = 0.00498303, Final residual = 0.000464127, No Iterations 2
smoothSolver:  Solving for Uy, Initial residual = 0.0341067, Final residual = 0.000549228, No Iterations 4
smoothSolver:  Solving for Uz, Initial residual = 0.0209071, Final residual = 0.00201785, No Iterations 2
GAMG:  Solving for p, Initial residual = 4.24741e-05, Final residual = 3.94033e-07, No Iterations 3
time step continuity errors : sum local = 0.00368279, global = 0.000101387, cumulative = -0.00751358
smoothSolver:  Solving for nuTilda, Initial residual = 0.00997564, Final residual = 0.000377774, No Iterations 2
bounding nuTilda, min: -0.00632682 max: 0.0691366 average: 0.00530542
ExecutionTime = 62.0714 s  ClockTime = 62 s

Time = 94s

smoothSolver:  Solving for Ux, Initial residual = 0.00487347, Final residual = 0.000454085, No Iterations 2
smoothSolver:  Solving for Uy, Initial residual = 0.0337136, Final residual = 0.00336592, No Iterations 2
smoothSolver:  Solving for Uz, Initial residual = 0.0201241, Final residual = 0.00191163, No Iterations 2
GAMG:  Solving for p, Initial residual = 4.18807e-05, Final residual = 3.88247e-07, No Iterations 3
time step continuity errors : sum local = 0.00362448, global = 0.000113064, cumulative = -0.00740052
smoothSolver:  Solving for nuTilda, Initial residual = 0.0099262, Final residual = 0.000376224, No Iterations 2
bounding nuTilda, min: -0.00628281 max: 0.0701229 average: 0.00537914
ExecutionTime = 62.5922 s  ClockTime = 63 s

Time = 95s

smoothSolver:  Solving for Ux, Initial residual = 0.0047396, Final residual = 0.000437989, No Iterations 2
smoothSolver:  Solving for Uy, Initial residual = 0.0338866, Final residual = 0.00338479, No Iterations 2
smoothSolver:  Solving for Uz, Initial residual = 0.0194551, Final residual = 0.00182361, No Iterations 2
GAMG:  Solving for p, Initial residual = 4.10564e-05, Final residual = 3.83944e-07, No Iterations 3
time step continuity errors : sum local = 0.00357329, global = 0.000184199, cumulative = -0.00721632
smoothSolver:  Solving for nuTilda, Initial residual = 0.00987595, Final residual = 0.000375131, No Iterations 2
bounding nuTilda, min: -0.0063269 max: 0.0711198 average: 0.00545421
ExecutionTime = 63.1073 s  ClockTime = 63 s

Time = 96s

smoothSolver:  Solving for Ux, Initial residual = 0.00464027, Final residual = 0.000426681, No Iterations 2
smoothSolver:  Solving for Uy, Initial residual = 0.033798, Final residual = 0.000559974, No Iterations 4
smoothSolver:  Solving for Uz, Initial residual = 0.0187861, Final residual = 0.00177218, No Iterations 2
GAMG:  Solving for p, Initial residual = 4.00084e-05, Final residual = 3.87381e-07, No Iterations 3
time step continuity errors : sum local = 0.00359642, global = 0.000206196, cumulative = -0.00701012
smoothSolver:  Solving for nuTilda, Initial residual = 0.00981371, Final residual = 0.000372707, No Iterations 2
bounding nuTilda, min: -0.0062829 max: 0.0721379 average: 0.00552927
ExecutionTime = 63.6122 s  ClockTime = 64 s

Time = 97s

smoothSolver:  Solving for Ux, Initial residual = 0.00460799, Final residual = 0.000424686, No Iterations 2
smoothSolver:  Solving for Uy, Initial residual = 0.0326444, Final residual = 0.000537792, No Iterations 4
smoothSolver:  Solving for Uz, Initial residual = 0.0181719, Final residual = 0.0017661, No Iterations 2
GAMG:  Solving for p, Initial residual = 3.90139e-05, Final residual = 3.80854e-07, No Iterations 3
time step continuity errors : sum local = 0.00353004, global = 0.000174368, cumulative = -0.00683575
smoothSolver:  Solving for nuTilda, Initial residual = 0.00974862, Final residual = 0.000369547, No Iterations 2
bounding nuTilda, min: -0.00632689 max: 0.0731712 average: 0.00560512
ExecutionTime = 64.1155 s  ClockTime = 64 s

Time = 98s

smoothSolver:  Solving for Ux, Initial residual = 0.00456842, Final residual = 0.000422175, No Iterations 2
smoothSolver:  Solving for Uy, Initial residual = 0.0316024, Final residual = 0.00313081, No Iterations 2
smoothSolver:  Solving for Uz, Initial residual = 0.0176613, Final residual = 0.00174619, No Iterations 2
GAMG:  Solving for p, Initial residual = 3.80447e-05, Final residual = 3.54267e-07, No Iterations 3
time step continuity errors : sum local = 0.00328097, global = 0.000150087, cumulative = -0.00668567
smoothSolver:  Solving for nuTilda, Initial residual = 0.00967934, Final residual = 0.000366024, No Iterations 2
bounding nuTilda, min: -0.00628283 max: 0.0742039 average: 0.00568077
ExecutionTime = 64.6398 s  ClockTime = 65 s

Time = 99s

smoothSolver:  Solving for Ux, Initial residual = 0.0044662, Final residual = 0.000410816, No Iterations 2
smoothSolver:  Solving for Uy, Initial residual = 0.0316144, Final residual = 0.00311514, No Iterations 2
smoothSolver:  Solving for Uz, Initial residual = 0.0171455, Final residual = 0.00168456, No Iterations 2
GAMG:  Solving for p, Initial residual = 3.7273e-05, Final residual = 3.3267e-07, No Iterations 3
time step continuity errors : sum local = 0.00308388, global = 0.000124195, cumulative = -0.00656147
smoothSolver:  Solving for nuTilda, Initial residual = 0.00960514, Final residual = 0.00036309, No Iterations 2
bounding nuTilda, min: -0.00632691 max: 0.0752178 average: 0.0057572
ExecutionTime = 65.15 s  ClockTime = 65 s

Time = 100s

smoothSolver:  Solving for Ux, Initial residual = 0.0043432, Final residual = 0.00039726, No Iterations 2
smoothSolver:  Solving for Uy, Initial residual = 0.0317484, Final residual = 0.0031068, No Iterations 2
smoothSolver:  Solving for Uz, Initial residual = 0.0167549, Final residual = 0.0016088, No Iterations 2
GAMG:  Solving for p, Initial residual = 3.62981e-05, Final residual = 3.23453e-07, No Iterations 3
time step continuity errors : sum local = 0.00300202, global = 0.000112079, cumulative = -0.00644939
smoothSolver:  Solving for nuTilda, Initial residual = 0.00951933, Final residual = 0.000360093, No Iterations 2
bounding nuTilda, min: -0.00628284 max: 0.0761946 average: 0.00583337
ExecutionTime = 65.6672 s  ClockTime = 66 s

Time = 101s

smoothSolver:  Solving for Ux, Initial residual = 0.00424623, Final residual = 0.000385358, No Iterations 2
smoothSolver:  Solving for Uy, Initial residual = 0.0314328, Final residual = 0.0030567, No Iterations 2
smoothSolver:  Solving for Uz, Initial residual = 0.0163833, Final residual = 0.00153289, No Iterations 2
GAMG:  Solving for p, Initial residual = 3.53142e-05, Final residual = 3.22503e-07, No Iterations 3
time step continuity errors : sum local = 0.00298504, global = 0.000138957, cumulative = -0.00631044
smoothSolver:  Solving for nuTilda, Initial residual = 0.00943432, Final residual = 0.00035706, No Iterations 2
bounding nuTilda, min: -0.00632693 max: 0.0771156 average: 0.0059103
ExecutionTime = 66.1643 s  ClockTime = 66 s

Time = 102s

smoothSolver:  Solving for Ux, Initial residual = 0.00418168, Final residual = 0.000376613, No Iterations 2
smoothSolver:  Solving for Uy, Initial residual = 0.0306479, Final residual = 0.00295571, No Iterations 2
smoothSolver:  Solving for Uz, Initial residual = 0.0159691, Final residual = 0.0014802, No Iterations 2
GAMG:  Solving for p, Initial residual = 3.4238e-05, Final residual = 3.21613e-07, No Iterations 3
time step continuity errors : sum local = 0.00296753, global = 0.000169161, cumulative = -0.00614128
smoothSolver:  Solving for nuTilda, Initial residual = 0.00933506, Final residual = 0.000353734, No Iterations 2
bounding nuTilda, min: -0.00628288 max: 0.0781047 average: 0.00598699
ExecutionTime = 66.6821 s  ClockTime = 67 s

Time = 103s

smoothSolver:  Solving for Ux, Initial residual = 0.00411598, Final residual = 0.000368575, No Iterations 2
smoothSolver:  Solving for Uy, Initial residual = 0.029837, Final residual = 0.00284882, No Iterations 2
smoothSolver:  Solving for Uz, Initial residual = 0.0154945, Final residual = 0.00143483, No Iterations 2
GAMG:  Solving for p, Initial residual = 3.26835e-05, Final residual = 3.10624e-07, No Iterations 3
time step continuity errors : sum local = 0.00286297, global = 0.000160806, cumulative = -0.00598047
smoothSolver:  Solving for nuTilda, Initial residual = 0.0092485, Final residual = 0.000350787, No Iterations 2
bounding nuTilda, min: -0.00632685 max: 0.079109 average: 0.00606461
ExecutionTime = 67.1809 s  ClockTime = 67 s

Time = 104s

[...]

smoothSolver:  Solving for Ux, Initial residual = 5.49822e-06, Final residual = 1.56802e-07, No Iterations 4
smoothSolver:  Solving for Uy, Initial residual = 1.65943e-05, Final residual = 5.96926e-07, No Iterations 4
smoothSolver:  Solving for Uz, Initial residual = 1.16459e-05, Final residual = 4.55228e-07, No Iterations 4
GAMG:  Solving for p, Initial residual = 3.33464e-07, Final residual = 2.46603e-08, No Iterations 1
time step continuity errors : sum local = 0.000143908, global = -8.20432e-05, cumulative = -0.0451221
smoothSolver:  Solving for nuTilda, Initial residual = 0.00015639, Final residual = 1.40843e-05, No Iterations 2
bounding nuTilda, min: -0.00632735 max: 0.128793 average: 0.0114413
ExecutionTime = 257.219 s  ClockTime = 257 s

Time = 476s

smoothSolver:  Solving for Ux, Initial residual = 5.48248e-06, Final residual = 1.56643e-07, No Iterations 4
smoothSolver:  Solving for Uy, Initial residual = 1.66123e-05, Final residual = 5.97179e-07, No Iterations 4
smoothSolver:  Solving for Uz, Initial residual = 1.16335e-05, Final residual = 4.53229e-07, No Iterations 4
GAMG:  Solving for p, Initial residual = 3.32405e-07, Final residual = 2.46676e-08, No Iterations 1
time step continuity errors : sum local = 0.00014374, global = -8.24166e-05, cumulative = -0.0452045
smoothSolver:  Solving for nuTilda, Initial residual = 0.000156188, Final residual = 1.40438e-05, No Iterations 2
bounding nuTilda, min: -0.0062827 max: 0.128852 average: 0.0114426
ExecutionTime = 257.719 s  ClockTime = 258 s

Time = 477s

smoothSolver:  Solving for Ux, Initial residual = 5.49538e-06, Final residual = 1.56948e-07, No Iterations 4
smoothSolver:  Solving for Uy, Initial residual = 1.66884e-05, Final residual = 5.98256e-07, No Iterations 4
smoothSolver:  Solving for Uz, Initial residual = 1.16541e-05, Final residual = 4.5411e-07, No Iterations 4
GAMG:  Solving for p, Initial residual = 3.33405e-07, Final residual = 2.48442e-08, No Iterations 1
time step continuity errors : sum local = 0.000144553, global = -8.24856e-05, cumulative = -0.045287
smoothSolver:  Solving for nuTilda, Initial residual = 0.00015575, Final residual = 1.40147e-05, No Iterations 2
bounding nuTilda, min: -0.00632729 max: 0.128911 average: 0.0114445
ExecutionTime = 258.187 s  ClockTime = 258 s

Time = 478s

smoothSolver:  Solving for Ux, Initial residual = 5.50119e-06, Final residual = 1.56763e-07, No Iterations 4
smoothSolver:  Solving for Uy, Initial residual = 1.66822e-05, Final residual = 5.98546e-07, No Iterations 4
smoothSolver:  Solving for Uz, Initial residual = 1.16938e-05, Final residual = 4.54832e-07, No Iterations 4
GAMG:  Solving for p, Initial residual = 3.3261e-07, Final residual = 2.49665e-08, No Iterations 1
time step continuity errors : sum local = 0.000145048, global = -8.45635e-05, cumulative = -0.0453716
smoothSolver:  Solving for nuTilda, Initial residual = 0.000155777, Final residual = 1.39787e-05, No Iterations 2
bounding nuTilda, min: -0.00628273 max: 0.12897 average: 0.0114458
ExecutionTime = 258.714 s  ClockTime = 259 s

Time = 479s

smoothSolver:  Solving for Ux, Initial residual = 5.48827e-06, Final residual = 1.56893e-07, No Iterations 4
smoothSolver:  Solving for Uy, Initial residual = 1.67074e-05, Final residual = 5.97978e-07, No Iterations 4
smoothSolver:  Solving for Uz, Initial residual = 1.16801e-05, Final residual = 4.54832e-07, No Iterations 4
GAMG:  Solving for p, Initial residual = 3.33205e-07, Final residual = 2.50926e-08, No Iterations 1
time step continuity errors : sum local = 0.000145561, global = -8.509e-05, cumulative = -0.0454567
smoothSolver:  Solving for nuTilda, Initial residual = 0.000155173, Final residual = 1.39493e-05, No Iterations 2
bounding nuTilda, min: -0.0063273 max: 0.129028 average: 0.0114476
ExecutionTime = 259.227 s  ClockTime = 259 s

Time = 480s

smoothSolver:  Solving for Ux, Initial residual = 5.48181e-06, Final residual = 1.56979e-07, No Iterations 4
smoothSolver:  Solving for Uy, Initial residual = 1.67407e-05, Final residual = 6.00149e-07, No Iterations 4
smoothSolver:  Solving for Uz, Initial residual = 1.16409e-05, Final residual = 4.53524e-07, No Iterations 4
GAMG:  Solving for p, Initial residual = 3.32526e-07, Final residual = 2.5131e-08, No Iterations 1
time step continuity errors : sum local = 0.000145564, global = -8.58122e-05, cumulative = -0.0455425
smoothSolver:  Solving for nuTilda, Initial residual = 0.00015495, Final residual = 1.39117e-05, No Iterations 2
bounding nuTilda, min: -0.00628282 max: 0.129086 average: 0.011449
ExecutionTime = 259.741 s  ClockTime = 260 s

Time = 481s

smoothSolver:  Solving for Ux, Initial residual = 5.50526e-06, Final residual = 1.57407e-07, No Iterations 4
smoothSolver:  Solving for Uy, Initial residual = 1.68263e-05, Final residual = 6.03335e-07, No Iterations 4
smoothSolver:  Solving for Uz, Initial residual = 1.16754e-05, Final residual = 4.5509e-07, No Iterations 4
GAMG:  Solving for p, Initial residual = 3.33442e-07, Final residual = 2.51425e-08, No Iterations 1
time step continuity errors : sum local = 0.00014541, global = -8.49826e-05, cumulative = -0.0456275
smoothSolver:  Solving for nuTilda, Initial residual = 0.000154497, Final residual = 1.38839e-05, No Iterations 2
bounding nuTilda, min: -0.00632734 max: 0.129143 average: 0.0114508
ExecutionTime = 260.249 s  ClockTime = 260 s

Time = 482s

smoothSolver:  Solving for Ux, Initial residual = 5.50158e-06, Final residual = 1.57115e-07, No Iterations 4
smoothSolver:  Solving for Uy, Initial residual = 1.67846e-05, Final residual = 6.04973e-07, No Iterations 4
smoothSolver:  Solving for Uz, Initial residual = 1.16921e-05, Final residual = 4.55821e-07, No Iterations 4
GAMG:  Solving for p, Initial residual = 3.33338e-07, Final residual = 2.52159e-08, No Iterations 1
time step continuity errors : sum local = 0.000145617, global = -8.54379e-05, cumulative = -0.0457129
smoothSolver:  Solving for nuTilda, Initial residual = 0.000154351, Final residual = 1.385e-05, No Iterations 2
bounding nuTilda, min: -0.00628275 max: 0.1292 average: 0.0114521
ExecutionTime = 260.737 s  ClockTime = 261 s

Time = 483s

smoothSolver:  Solving for Ux, Initial residual = 5.49602e-06, Final residual = 1.56864e-07, No Iterations 4
smoothSolver:  Solving for Uy, Initial residual = 1.66507e-05, Final residual = 6.03894e-07, No Iterations 4
smoothSolver:  Solving for Uz, Initial residual = 1.16917e-05, Final residual = 4.56625e-07, No Iterations 4
GAMG:  Solving for p, Initial residual = 3.33539e-07, Final residual = 2.52864e-08, No Iterations 1
time step continuity errors : sum local = 0.000145803, global = -8.59742e-05, cumulative = -0.0457989
smoothSolver:  Solving for nuTilda, Initial residual = 0.000153948, Final residual = 1.38239e-05, No Iterations 2
bounding nuTilda, min: -0.00632734 max: 0.129257 average: 0.011454
ExecutionTime = 261.204 s  ClockTime = 261 s

Time = 484s

smoothSolver:  Solving for Ux, Initial residual = 5.49903e-06, Final residual = 1.57092e-07, No Iterations 4
smoothSolver:  Solving for Uy, Initial residual = 1.65816e-05, Final residual = 6.05386e-07, No Iterations 4
smoothSolver:  Solving for Uz, Initial residual = 1.17133e-05, Final residual = 4.58117e-07, No Iterations 4
GAMG:  Solving for p, Initial residual = 3.32971e-07, Final residual = 2.54952e-08, No Iterations 1
time step continuity errors : sum local = 0.000146784, global = -8.78319e-05, cumulative = -0.0458867
smoothSolver:  Solving for nuTilda, Initial residual = 0.000153799, Final residual = 1.37888e-05, No Iterations 2
bounding nuTilda, min: -0.00628269 max: 0.129313 average: 0.0114553
ExecutionTime = 261.703 s  ClockTime = 262 s

Time = 485s

smoothSolver:  Solving for Ux, Initial residual = 5.51533e-06, Final residual = 1.57306e-07, No Iterations 4
smoothSolver:  Solving for Uy, Initial residual = 1.65957e-05, Final residual = 6.05867e-07, No Iterations 4
smoothSolver:  Solving for Uz, Initial residual = 1.17596e-05, Final residual = 4.57304e-07, No Iterations 4
GAMG:  Solving for p, Initial residual = 3.33929e-07, Final residual = 2.55453e-08, No Iterations 1
time step continuity errors : sum local = 0.000146847, global = -8.65405e-05, cumulative = -0.0459733
smoothSolver:  Solving for nuTilda, Initial residual = 0.000153367, Final residual = 1.37632e-05, No Iterations 2
bounding nuTilda, min: -0.00632735 max: 0.129369 average: 0.0114571
ExecutionTime = 262.179 s  ClockTime = 262 s

Time = 486s

smoothSolver:  Solving for Ux, Initial residual = 5.5292e-06, Final residual = 1.57381e-07, No Iterations 4
smoothSolver:  Solving for Uy, Initial residual = 1.65871e-05, Final residual = 6.07781e-07, No Iterations 4
smoothSolver:  Solving for Uz, Initial residual = 1.1805e-05, Final residual = 4.57849e-07, No Iterations 4
GAMG:  Solving for p, Initial residual = 3.33696e-07, Final residual = 2.56255e-08, No Iterations 1
time step continuity errors : sum local = 0.000147085, global = -8.7012e-05, cumulative = -0.0460603
smoothSolver:  Solving for nuTilda, Initial residual = 0.000153228, Final residual = 1.37299e-05, No Iterations 2
bounding nuTilda, min: -0.00628276 max: 0.129425 average: 0.0114585
ExecutionTime = 262.688 s  ClockTime = 263 s

Time = 487s

smoothSolver:  Solving for Ux, Initial residual = 5.52754e-06, Final residual = 1.57596e-07, No Iterations 4
smoothSolver:  Solving for Uy, Initial residual = 1.65802e-05, Final residual = 6.06089e-07, No Iterations 4
smoothSolver:  Solving for Uz, Initial residual = 1.17423e-05, Final residual = 4.57246e-07, No Iterations 4
GAMG:  Solving for p, Initial residual = 3.34459e-07, Final residual = 2.57756e-08, No Iterations 1
time step continuity errors : sum local = 0.000147719, global = -8.71217e-05, cumulative = -0.0461474
smoothSolver:  Solving for nuTilda, Initial residual = 0.000152831, Final residual = 1.37052e-05, No Iterations 2
bounding nuTilda, min: -0.00632735 max: 0.12948 average: 0.0114603
ExecutionTime = 263.182 s  ClockTime = 263 s

Time = 488s

smoothSolver:  Solving for Ux, Initial residual = 5.52138e-06, Final residual = 1.57835e-07, No Iterations 4
smoothSolver:  Solving for Uy, Initial residual = 1.65628e-05, Final residual = 6.04069e-07, No Iterations 4
smoothSolver:  Solving for Uz, Initial residual = 1.17343e-05, Final residual = 4.57241e-07, No Iterations 4
GAMG:  Solving for p, Initial residual = 3.33392e-07, Final residual = 2.58893e-08, No Iterations 1
time step continuity errors : sum local = 0.000148142, global = -8.92308e-05, cumulative = -0.0462366
smoothSolver:  Solving for nuTilda, Initial residual = 0.000152686, Final residual = 1.36699e-05, No Iterations 2
bounding nuTilda, min: -0.00628276 max: 0.129535 average: 0.0114617
ExecutionTime = 263.694 s  ClockTime = 264 s

Time = 489s

smoothSolver:  Solving for Ux, Initial residual = 5.53894e-06, Final residual = 1.58231e-07, No Iterations 4
smoothSolver:  Solving for Uy, Initial residual = 1.6667e-05, Final residual = 6.0399e-07, No Iterations 4
smoothSolver:  Solving for Uz, Initial residual = 1.17074e-05, Final residual = 4.54983e-07, No Iterations 4
GAMG:  Solving for p, Initial residual = 3.34376e-07, Final residual = 2.5917e-08, No Iterations 1
time step continuity errors : sum local = 0.000148069, global = -8.81187e-05, cumulative = -0.0463247
smoothSolver:  Solving for nuTilda, Initial residual = 0.000152336, Final residual = 1.36458e-05, No Iterations 2
bounding nuTilda, min: -0.00632733 max: 0.129589 average: 0.0114635
ExecutionTime = 264.268 s  ClockTime = 264 s

Time = 490s

smoothSolver:  Solving for Ux, Initial residual = 5.53774e-06, Final residual = 1.58158e-07, No Iterations 4
smoothSolver:  Solving for Uy, Initial residual = 1.66916e-05, Final residual = 6.03982e-07, No Iterations 4
smoothSolver:  Solving for Uz, Initial residual = 1.16485e-05, Final residual = 4.52445e-07, No Iterations 4
GAMG:  Solving for p, Initial residual = 3.33883e-07, Final residual = 2.59787e-08, No Iterations 1
time step continuity errors : sum local = 0.000148195, global = -8.86646e-05, cumulative = -0.0464134
smoothSolver:  Solving for nuTilda, Initial residual = 0.000152205, Final residual = 1.36139e-05, No Iterations 2
bounding nuTilda, min: -0.00628274 max: 0.129644 average: 0.0114648
ExecutionTime = 264.848 s  ClockTime = 265 s

Time = 491s

smoothSolver:  Solving for Ux, Initial residual = 5.53361e-06, Final residual = 1.58333e-07, No Iterations 4
smoothSolver:  Solving for Uy, Initial residual = 1.66545e-05, Final residual = 6.01231e-07, No Iterations 4
smoothSolver:  Solving for Uz, Initial residual = 1.15616e-05, Final residual = 4.49878e-07, No Iterations 4
GAMG:  Solving for p, Initial residual = 3.33956e-07, Final residual = 2.60865e-08, No Iterations 1
time step continuity errors : sum local = 0.00014858, global = -8.92258e-05, cumulative = -0.0465026
smoothSolver:  Solving for nuTilda, Initial residual = 0.000151823, Final residual = 1.35913e-05, No Iterations 2
bounding nuTilda, min: -0.00632729 max: 0.129698 average: 0.0114667
ExecutionTime = 265.33 s  ClockTime = 265 s

Time = 492s

smoothSolver:  Solving for Ux, Initial residual = 5.53001e-06, Final residual = 1.58579e-07, No Iterations 4
smoothSolver:  Solving for Uy, Initial residual = 1.66557e-05, Final residual = 6.01383e-07, No Iterations 4
smoothSolver:  Solving for Uz, Initial residual = 1.15484e-05, Final residual = 4.49823e-07, No Iterations 4
GAMG:  Solving for p, Initial residual = 3.33483e-07, Final residual = 2.61683e-08, No Iterations 1
time step continuity errors : sum local = 0.000148814, global = -8.9644e-05, cumulative = -0.0465923
smoothSolver:  Solving for nuTilda, Initial residual = 0.000151765, Final residual = 1.35605e-05, No Iterations 2
bounding nuTilda, min: -0.00628276 max: 0.129751 average: 0.0114681
ExecutionTime = 265.832 s  ClockTime = 266 s

Time = 493s

smoothSolver:  Solving for Ux, Initial residual = 5.5486e-06, Final residual = 1.59302e-07, No Iterations 4
smoothSolver:  Solving for Uy, Initial residual = 1.67302e-05, Final residual = 6.01784e-07, No Iterations 4
smoothSolver:  Solving for Uz, Initial residual = 1.16125e-05, Final residual = 4.50207e-07, No Iterations 4
GAMG:  Solving for p, Initial residual = 3.343e-07, Final residual = 2.65087e-08, No Iterations 1
time step continuity errors : sum local = 0.000150517, global = -9.23268e-05, cumulative = -0.0466846
smoothSolver:  Solving for nuTilda, Initial residual = 0.000151339, Final residual = 1.35364e-05, No Iterations 2
bounding nuTilda, min: -0.0063273 max: 0.129804 average: 0.0114699
ExecutionTime = 266.317 s  ClockTime = 266 s

Time = 494s

smoothSolver:  Solving for Ux, Initial residual = 5.55695e-06, Final residual = 1.59575e-07, No Iterations 4
smoothSolver:  Solving for Uy, Initial residual = 1.67655e-05, Final residual = 6.03114e-07, No Iterations 4
smoothSolver:  Solving for Uz, Initial residual = 1.15951e-05, Final residual = 4.49956e-07, No Iterations 4
GAMG:  Solving for p, Initial residual = 3.33875e-07, Final residual = 2.64702e-08, No Iterations 1
time step continuity errors : sum local = 0.00015006, global = -9.16032e-05, cumulative = -0.0467762
smoothSolver:  Solving for nuTilda, Initial residual = 0.000151228, Final residual = 1.35039e-05, No Iterations 2
bounding nuTilda, min: -0.00628276 max: 0.129857 average: 0.0114713
ExecutionTime = 266.83 s  ClockTime = 267 s

Time = 495s

smoothSolver:  Solving for Ux, Initial residual = 5.55005e-06, Final residual = 1.59504e-07, No Iterations 4
smoothSolver:  Solving for Uy, Initial residual = 1.67498e-05, Final residual = 6.03059e-07, No Iterations 4
smoothSolver:  Solving for Uz, Initial residual = 1.15488e-05, Final residual = 4.47507e-07, No Iterations 4
GAMG:  Solving for p, Initial residual = 3.33955e-07, Final residual = 2.66598e-08, No Iterations 1
time step continuity errors : sum local = 0.000150901, global = -9.26264e-05, cumulative = -0.0468688
smoothSolver:  Solving for nuTilda, Initial residual = 0.000150843, Final residual = 1.34788e-05, No Iterations 2
bounding nuTilda, min: -0.00632736 max: 0.12991 average: 0.0114731
ExecutionTime = 267.314 s  ClockTime = 267 s

Time = 496s

smoothSolver:  Solving for Ux, Initial residual = 5.5401e-06, Final residual = 1.59455e-07, No Iterations 4
smoothSolver:  Solving for Uy, Initial residual = 1.67694e-05, Final residual = 6.04226e-07, No Iterations 4
smoothSolver:  Solving for Uz, Initial residual = 1.1557e-05, Final residual = 4.463e-07, No Iterations 4
GAMG:  Solving for p, Initial residual = 3.33085e-07, Final residual = 2.67361e-08, No Iterations 1
time step continuity errors : sum local = 0.000151095, global = -9.34833e-05, cumulative = -0.0469623
smoothSolver:  Solving for nuTilda, Initial residual = 0.000150861, Final residual = 1.34552e-05, No Iterations 2
bounding nuTilda, min: -0.00628273 max: 0.129962 average: 0.0114745
ExecutionTime = 267.813 s  ClockTime = 268 s

Time = 497s

smoothSolver:  Solving for Ux, Initial residual = 5.55883e-06, Final residual = 1.60012e-07, No Iterations 4
smoothSolver:  Solving for Uy, Initial residual = 1.68549e-05, Final residual = 6.04874e-07, No Iterations 4
smoothSolver:  Solving for Uz, Initial residual = 1.16281e-05, Final residual = 4.47151e-07, No Iterations 4
GAMG:  Solving for p, Initial residual = 3.34025e-07, Final residual = 2.69293e-08, No Iterations 1
time step continuity errors : sum local = 0.000151946, global = -9.37435e-05, cumulative = -0.0470561
smoothSolver:  Solving for nuTilda, Initial residual = 0.000150441, Final residual = 1.34294e-05, No Iterations 2
bounding nuTilda, min: -0.00632738 max: 0.130014 average: 0.0114763
ExecutionTime = 268.291 s  ClockTime = 268 s

Time = 498s

smoothSolver:  Solving for Ux, Initial residual = 5.57389e-06, Final residual = 1.6008e-07, No Iterations 4
smoothSolver:  Solving for Uy, Initial residual = 1.68163e-05, Final residual = 6.06346e-07, No Iterations 4
smoothSolver:  Solving for Uz, Initial residual = 1.16427e-05, Final residual = 4.49337e-07, No Iterations 4
GAMG:  Solving for p, Initial residual = 3.3361e-07, Final residual = 2.72391e-08, No Iterations 1
time step continuity errors : sum local = 0.000153452, global = -9.66801e-05, cumulative = -0.0471527
smoothSolver:  Solving for nuTilda, Initial residual = 0.000150325, Final residual = 1.33998e-05, No Iterations 2
bounding nuTilda, min: -0.00628272 max: 0.130065 average: 0.0114777
ExecutionTime = 268.805 s  ClockTime = 269 s

Time = 499s

smoothSolver:  Solving for Ux, Initial residual = 5.56951e-06, Final residual = 1.60192e-07, No Iterations 4
smoothSolver:  Solving for Uy, Initial residual = 1.6766e-05, Final residual = 6.05024e-07, No Iterations 4
smoothSolver:  Solving for Uz, Initial residual = 1.15482e-05, Final residual = 4.4835e-07, No Iterations 4
GAMG:  Solving for p, Initial residual = 3.33956e-07, Final residual = 2.74264e-08, No Iterations 1
time step continuity errors : sum local = 0.000154259, global = -9.74145e-05, cumulative = -0.0472502
smoothSolver:  Solving for nuTilda, Initial residual = 0.000150014, Final residual = 1.3379e-05, No Iterations 2
bounding nuTilda, min: -0.00632731 max: 0.130117 average: 0.0114796
ExecutionTime = 269.283 s  ClockTime = 269 s

Time = 500s

smoothSolver:  Solving for Ux, Initial residual = 5.56957e-06, Final residual = 1.6084e-07, No Iterations 4
smoothSolver:  Solving for Uy, Initial residual = 1.67704e-05, Final residual = 6.07143e-07, No Iterations 4
smoothSolver:  Solving for Uz, Initial residual = 1.15509e-05, Final residual = 4.46571e-07, No Iterations 4
GAMG:  Solving for p, Initial residual = 3.3329e-07, Final residual = 2.73859e-08, No Iterations 1
time step continuity errors : sum local = 0.000153786, global = -9.63448e-05, cumulative = -0.0473465
smoothSolver:  Solving for nuTilda, Initial residual = 0.000149922, Final residual = 1.33519e-05, No Iterations 2
bounding nuTilda, min: -0.00628271 max: 0.130168 average: 0.0114809
ExecutionTime = 269.795 s  ClockTime = 270 s

End

Finalising parallel run
