/*---------------------------------------------------------------------------*\
  =========                 |
  \\      /  F ield         | OpenFOAM: The Open Source CFD Toolbox
   \\    /   O peration     | Website:  https://openfoam.org
    \\  /    A nd           | Version:  11
     \\/     M anipulation  |
\*---------------------------------------------------------------------------*/
Build  : 11-d496a603da00
Exec   : foamRun -solver incompressibleFluid -parallel
Date   : Oct 18 2023
Time   : 00:57:59
Host   : "Laptop"
PID    : 392926
I/O    : uncollated
Case   : /home/tiago/OpenFOAM/tiago-11/run/wind_tunnel
nProcs : 4
Slaves : 
3
(
"Laptop.392927"
"Laptop.392929"
"Laptop.392933"
)

Pstream initialised with:
    floatTransfer      : false
    nProcsSimpleSum    : 0
    commsType          : nonBlocking
    polling iterations : 0
sigFpe : Enabling floating point exception trapping (FOAM_SIGFPE).
fileModificationChecking : Monitoring run-time modified files using timeStampMaster (fileModificationSkew 10)
allowSystemOperations : Allowing user-supplied system call operations

// * * * * * * * * * * * * * * * * * * * * * * * * * * * * * * * * * * * * * //
Create time

Create mesh for time = 0

Selecting solver incompressibleFluid
Selecting viscosity model constant
Selecting turbulence model type RAS
Selecting RAS turbulence model SpalartAllmaras
Selecting patchDistMethod meshWave
RAS
{
    model           SpalartAllmaras;
    turbulence      on;
    printCoeffs     on;
    sigmaNut        0.66666;
    kappa           0.41;
    Cb1             0.1355;
    Cb2             0.622;
    Cw2             0.3;
    Cw3             2;
    Cv1             7.1;
    Cs              0.3;
}

No MRF models present


SIMPLE: Convergence criteria found
        p: tolerance 1e-05
        U: tolerance 1e-05
        nuTilda: tolerance 1e-05


SIMPLE: Operating solver in steady-state mode with 1 outer corrector
SIMPLE: Operating solver in SIMPLE mode



Starting time loop

Time = 1s

smoothSolver:  Solving for Ux, Initial residual = 1, Final residual = 2.79629e-05, No Iterations 2
smoothSolver:  Solving for Uy, Initial residual = 1, Final residual = 0.0310836, No Iterations 2
smoothSolver:  Solving for Uz, Initial residual = 1, Final residual = 0.034533, No Iterations 2
GAMG:  Solving for p, Initial residual = 1, Final residual = 0.00941907, No Iterations 16
time step continuity errors : sum local = 0.00698648, global = 0.00190276, cumulative = 0.00190276
smoothSolver:  Solving for nuTilda, Initial residual = 1, Final residual = 0.0471972, No Iterations 6
bounding nuTilda, min: -0.0019255 max: 0.0376542 average: 0.000363986
ExecutionTime = 8.85081 s  ClockTime = 9 s

Time = 2s

smoothSolver:  Solving for Ux, Initial residual = 0.0928576, Final residual = 0.00629616, No Iterations 4
smoothSolver:  Solving for Uy, Initial residual = 0.237239, Final residual = 0.0133378, No Iterations 4
smoothSolver:  Solving for Uz, Initial residual = 0.250954, Final residual = 0.0143863, No Iterations 4
GAMG:  Solving for p, Initial residual = 0.0140871, Final residual = 0.000126897, No Iterations 64
time step continuity errors : sum local = 0.0118034, global = 0.000447237, cumulative = 0.00235
smoothSolver:  Solving for nuTilda, Initial residual = 0.18491, Final residual = 0.0164938, No Iterations 4
bounding nuTilda, min: -0.00212875 max: 0.03955 average: 0.00051398
ExecutionTime = 16.5704 s  ClockTime = 16 s

Time = 3s

smoothSolver:  Solving for Ux, Initial residual = 0.275464, Final residual = 0.0258299, No Iterations 4
smoothSolver:  Solving for Uy, Initial residual = 0.33295, Final residual = 0.0244712, No Iterations 4
smoothSolver:  Solving for Uz, Initial residual = 0.29036, Final residual = 0.023831, No Iterations 4
GAMG:  Solving for p, Initial residual = 3.44152e-05, Final residual = 2.43215e-07, No Iterations 7
time step continuity errors : sum local = 0.0179642, global = 0.000974446, cumulative = 0.00332444
smoothSolver:  Solving for nuTilda, Initial residual = 0.123508, Final residual = 0.00768555, No Iterations 6
bounding nuTilda, min: -0.00070684 max: 0.0385912 average: 0.000671885
ExecutionTime = 19.4256 s  ClockTime = 19 s

Time = 4s

smoothSolver:  Solving for Ux, Initial residual = 0.245262, Final residual = 0.0239091, No Iterations 4
smoothSolver:  Solving for Uy, Initial residual = 0.203835, Final residual = 0.0185665, No Iterations 4
smoothSolver:  Solving for Uz, Initial residual = 0.211067, Final residual = 0.0190452, No Iterations 4
GAMG:  Solving for p, Initial residual = 2.91251e-05, Final residual = 2.60491e-07, No Iterations 16
time step continuity errors : sum local = 0.0257696, global = -0.00114557, cumulative = 0.00217888
smoothSolver:  Solving for nuTilda, Initial residual = 0.0780571, Final residual = 0.00590575, No Iterations 6
bounding nuTilda, min: -0.00330483 max: 0.0384303 average: 0.000837817
ExecutionTime = 23.4623 s  ClockTime = 23 s

Time = 5s

smoothSolver:  Solving for Ux, Initial residual = 0.0817321, Final residual = 0.00721916, No Iterations 4
smoothSolver:  Solving for Uy, Initial residual = 0.157904, Final residual = 0.0120338, No Iterations 4
smoothSolver:  Solving for Uz, Initial residual = 0.159588, Final residual = 0.0138844, No Iterations 4
GAMG:  Solving for p, Initial residual = 8.87138e-05, Final residual = 8.22161e-07, No Iterations 13
time step continuity errors : sum local = 0.0273954, global = -0.00290558, cumulative = -0.000726701
smoothSolver:  Solving for nuTilda, Initial residual = 0.0607188, Final residual = 0.00485586, No Iterations 6
bounding nuTilda, min: -0.00753419 max: 0.038459 average: 0.00100477
ExecutionTime = 26.9187 s  ClockTime = 27 s

Time = 6s

smoothSolver:  Solving for Ux, Initial residual = 0.132497, Final residual = 0.00913875, No Iterations 4
smoothSolver:  Solving for Uy, Initial residual = 0.151599, Final residual = 0.00992628, No Iterations 4
smoothSolver:  Solving for Uz, Initial residual = 0.143717, Final residual = 0.00933636, No Iterations 4
GAMG:  Solving for p, Initial residual = 0.000125609, Final residual = 1.17135e-06, No Iterations 6
time step continuity errors : sum local = 0.0251034, global = 0.0010452, cumulative = 0.000318502
smoothSolver:  Solving for nuTilda, Initial residual = 0.052224, Final residual = 0.00405102, No Iterations 6
bounding nuTilda, min: -0.00863014 max: 0.0382479 average: 0.00116714
ExecutionTime = 29.8381 s  ClockTime = 30 s

Time = 7s

smoothSolver:  Solving for Ux, Initial residual = 0.146588, Final residual = 0.0132523, No Iterations 4
smoothSolver:  Solving for Uy, Initial residual = 0.158519, Final residual = 0.0111302, No Iterations 4
smoothSolver:  Solving for Uz, Initial residual = 0.152598, Final residual = 0.0109938, No Iterations 4
GAMG:  Solving for p, Initial residual = 6.55005e-05, Final residual = 5.40439e-07, No Iterations 11
time step continuity errors : sum local = 0.0214496, global = 0.00285872, cumulative = 0.00317722
smoothSolver:  Solving for nuTilda, Initial residual = 0.0462694, Final residual = 0.0034868, No Iterations 6
bounding nuTilda, min: -0.00912756 max: 0.0383289 average: 0.00132975
ExecutionTime = 33.3181 s  ClockTime = 33 s

Time = 8s

smoothSolver:  Solving for Ux, Initial residual = 0.0728134, Final residual = 0.00599084, No Iterations 4
smoothSolver:  Solving for Uy, Initial residual = 0.13115, Final residual = 0.00903899, No Iterations 4
smoothSolver:  Solving for Uz, Initial residual = 0.133644, Final residual = 0.00972717, No Iterations 4
GAMG:  Solving for p, Initial residual = 0.000155597, Final residual = 1.48161e-06, No Iterations 10
time step continuity errors : sum local = 0.0225523, global = 0.00335731, cumulative = 0.00653453
smoothSolver:  Solving for nuTilda, Initial residual = 0.0415623, Final residual = 0.00306548, No Iterations 6
bounding nuTilda, min: -0.00906104 max: 0.0381428 average: 0.00149055
ExecutionTime = 37.0763 s  ClockTime = 37 s

Time = 9s

smoothSolver:  Solving for Ux, Initial residual = 0.0916452, Final residual = 0.00526787, No Iterations 4
smoothSolver:  Solving for Uy, Initial residual = 0.121116, Final residual = 0.0061885, No Iterations 4
smoothSolver:  Solving for Uz, Initial residual = 0.118743, Final residual = 0.00627486, No Iterations 4
GAMG:  Solving for p, Initial residual = 0.000194243, Final residual = 1.57923e-06, No Iterations 6
time step continuity errors : sum local = 0.018388, global = -0.00031087, cumulative = 0.00622366
smoothSolver:  Solving for nuTilda, Initial residual = 0.037284, Final residual = 0.00272271, No Iterations 6
bounding nuTilda, min: -0.0090279 max: 0.0380366 average: 0.00164554
ExecutionTime = 43.3272 s  ClockTime = 43 s

Time = 10s

smoothSolver:  Solving for Ux, Initial residual = 0.0844417, Final residual = 0.00665195, No Iterations 4
smoothSolver:  Solving for Uy, Initial residual = 0.120584, Final residual = 0.00657575, No Iterations 4
smoothSolver:  Solving for Uz, Initial residual = 0.117916, Final residual = 0.00685971, No Iterations 4
GAMG:  Solving for p, Initial residual = 0.000103457, Final residual = 9.15923e-07, No Iterations 9
time step continuity errors : sum local = 0.0186474, global = -0.00188757, cumulative = 0.0043361
smoothSolver:  Solving for nuTilda, Initial residual = 0.0342475, Final residual = 0.00244947, No Iterations 6
bounding nuTilda, min: -0.0087864 max: 0.0379306 average: 0.00179511
ExecutionTime = 48.7168 s  ClockTime = 49 s

Time = 11s

smoothSolver:  Solving for Ux, Initial residual = 0.0528291, Final residual = 0.00348662, No Iterations 4
smoothSolver:  Solving for Uy, Initial residual = 0.107497, Final residual = 0.00594625, No Iterations 4
smoothSolver:  Solving for Uz, Initial residual = 0.106171, Final residual = 0.00642345, No Iterations 4
GAMG:  Solving for p, Initial residual = 0.000224431, Final residual = 2.05626e-06, No Iterations 9
time step continuity errors : sum local = 0.0182437, global = -0.00254731, cumulative = 0.00178878
smoothSolver:  Solving for nuTilda, Initial residual = 0.0314047, Final residual = 0.00221028, No Iterations 6
bounding nuTilda, min: -0.00901609 max: 0.0377777 average: 0.00194043
ExecutionTime = 53.3906 s  ClockTime = 53 s

Time = 12s

smoothSolver:  Solving for Ux, Initial residual = 0.0551352, Final residual = 0.00254861, No Iterations 4
smoothSolver:  Solving for Uy, Initial residual = 0.0996359, Final residual = 0.00435498, No Iterations 4
smoothSolver:  Solving for Uz, Initial residual = 0.0939618, Final residual = 0.00425056, No Iterations 4
GAMG:  Solving for p, Initial residual = 0.0107152, Final residual = 9.92785e-05, No Iterations 5
time step continuity errors : sum local = 0.0179112, global = -0.000565807, cumulative = 0.00122297
smoothSolver:  Solving for nuTilda, Initial residual = 0.0291092, Final residual = 0.00202221, No Iterations 6
bounding nuTilda, min: -0.00886752 max: 0.0377287 average: 0.00208433
ExecutionTime = 56.7888 s  ClockTime = 57 s

Time = 13s

smoothSolver:  Solving for Ux, Initial residual = 0.0549564, Final residual = 0.00358761, No Iterations 4
smoothSolver:  Solving for Uy, Initial residual = 0.0959401, Final residual = 0.00422337, No Iterations 4
smoothSolver:  Solving for Uz, Initial residual = 0.0910217, Final residual = 0.00415456, No Iterations 4
GAMG:  Solving for p, Initial residual = 0.000509121, Final residual = 3.96319e-06, No Iterations 7
time step continuity errors : sum local = 0.0145527, global = 0.00175286, cumulative = 0.00297583
smoothSolver:  Solving for nuTilda, Initial residual = 0.0270899, Final residual = 0.00185717, No Iterations 6
bounding nuTilda, min: -0.00905422 max: 0.0376946 average: 0.00222388
ExecutionTime = 60.2223 s  ClockTime = 60 s

Time = 14s

smoothSolver:  Solving for Ux, Initial residual = 0.0453314, Final residual = 0.00229614, No Iterations 4
smoothSolver:  Solving for Uy, Initial residual = 0.0975387, Final residual = 0.00441667, No Iterations 4
smoothSolver:  Solving for Uz, Initial residual = 0.0966581, Final residual = 0.00466499, No Iterations 4
GAMG:  Solving for p, Initial residual = 0.000917927, Final residual = 6.83447e-06, No Iterations 7
time step continuity errors : sum local = 0.0131875, global = 0.00179964, cumulative = 0.00477547
smoothSolver:  Solving for nuTilda, Initial residual = 0.0253598, Final residual = 0.0017217, No Iterations 6
bounding nuTilda, min: -0.00887476 max: 0.0376545 average: 0.00235551
ExecutionTime = 63.8301 s  ClockTime = 64 s

Time = 15s

smoothSolver:  Solving for Ux, Initial residual = 0.0431617, Final residual = 0.00146598, No Iterations 4
smoothSolver:  Solving for Uy, Initial residual = 0.102816, Final residual = 0.00369142, No Iterations 4
smoothSolver:  Solving for Uz, Initial residual = 0.101472, Final residual = 0.00376883, No Iterations 4
GAMG:  Solving for p, Initial residual = 0.00124894, Final residual = 1.14452e-05, No Iterations 5
time step continuity errors : sum local = 0.0163284, global = 0.000303313, cumulative = 0.00507879
smoothSolver:  Solving for nuTilda, Initial residual = 0.0238704, Final residual = 0.00160505, No Iterations 6
bounding nuTilda, min: -0.00903639 max: 0.0376543 average: 0.00247614
ExecutionTime = 67.4316 s  ClockTime = 67 s

Time = 16s

smoothSolver:  Solving for Ux, Initial residual = 0.0411558, Final residual = 0.00207338, No Iterations 4
smoothSolver:  Solving for Uy, Initial residual = 0.104498, Final residual = 0.00344676, No Iterations 4
smoothSolver:  Solving for Uz, Initial residual = 0.0987672, Final residual = 0.00329638, No Iterations 4
GAMG:  Solving for p, Initial residual = 0.000515531, Final residual = 4.53908e-06, No Iterations 6
time step continuity errors : sum local = 0.0154466, global = -0.00190244, cumulative = 0.00317635
smoothSolver:  Solving for nuTilda, Initial residual = 0.0228853, Final residual = 0.00151244, No Iterations 6
bounding nuTilda, min: -0.00885763 max: 0.0376373 average: 0.00258844
ExecutionTime = 71.7186 s  ClockTime = 72 s

Time = 17s

smoothSolver:  Solving for Ux, Initial residual = 0.0384016, Final residual = 0.0016542, No Iterations 4
smoothSolver:  Solving for Uy, Initial residual = 0.0994551, Final residual = 0.00349822, No Iterations 4
smoothSolver:  Solving for Uz, Initial residual = 0.0910689, Final residual = 0.00344239, No Iterations 4
GAMG:  Solving for p, Initial residual = 0.000530464, Final residual = 4.16736e-06, No Iterations 7
time step continuity errors : sum local = 0.0135064, global = -0.00106642, cumulative = 0.00210992
smoothSolver:  Solving for nuTilda, Initial residual = 0.0220109, Final residual = 0.00143215, No Iterations 6
bounding nuTilda, min: -0.00902937 max: 0.0376313 average: 0.00269484
ExecutionTime = 75.3987 s  ClockTime = 75 s

Time = 18s

smoothSolver:  Solving for Ux, Initial residual = 0.0361093, Final residual = 0.00117016, No Iterations 4
smoothSolver:  Solving for Uy, Initial residual = 0.0925296, Final residual = 0.00315876, No Iterations 4
smoothSolver:  Solving for Uz, Initial residual = 0.0846347, Final residual = 0.00299286, No Iterations 4
GAMG:  Solving for p, Initial residual = 0.000911695, Final residual = 8.3932e-06, No Iterations 5
time step continuity errors : sum local = 0.0157068, global = -0.00088712, cumulative = 0.0012228
smoothSolver:  Solving for nuTilda, Initial residual = 0.0213583, Final residual = 0.00136681, No Iterations 6
bounding nuTilda, min: -0.00887579 max: 0.0376294 average: 0.00279664
ExecutionTime = 79.0317 s  ClockTime = 79 s

Time = 19s

smoothSolver:  Solving for Ux, Initial residual = 0.0334031, Final residual = 0.00128186, No Iterations 4
smoothSolver:  Solving for Uy, Initial residual = 0.0928173, Final residual = 0.00301437, No Iterations 4
smoothSolver:  Solving for Uz, Initial residual = 0.0853723, Final residual = 0.00270071, No Iterations 4
GAMG:  Solving for p, Initial residual = 0.00201674, Final residual = 1.8006e-05, No Iterations 5
time step continuity errors : sum local = 0.015374, global = 0.000586004, cumulative = 0.00180881
smoothSolver:  Solving for nuTilda, Initial residual = 0.0208894, Final residual = 0.00130734, No Iterations 6
bounding nuTilda, min: -0.00904091 max: 0.0376191 average: 0.00289215
ExecutionTime = 82.1905 s  ClockTime = 82 s

Time = 20s

smoothSolver:  Solving for Ux, Initial residual = 0.0320322, Final residual = 0.00111947, No Iterations 4
smoothSolver:  Solving for Uy, Initial residual = 0.0976493, Final residual = 0.00326556, No Iterations 4
smoothSolver:  Solving for Uz, Initial residual = 0.0900004, Final residual = 0.00306068, No Iterations 4
GAMG:  Solving for p, Initial residual = 0.00168709, Final residual = 1.67833e-05, No Iterations 5
time step continuity errors : sum local = 0.0171805, global = 0.00183888, cumulative = 0.00364769
smoothSolver:  Solving for nuTilda, Initial residual = 0.0206409, Final residual = 0.00125916, No Iterations 6
bounding nuTilda, min: -0.00887465 max: 0.0376181 average: 0.00298248
ExecutionTime = 86.1768 s  ClockTime = 86 s

Time = 21s

smoothSolver:  Solving for Ux, Initial residual = 0.0301154, Final residual = 0.000904896, No Iterations 4
smoothSolver:  Solving for Uy, Initial residual = 0.0957086, Final residual = 0.00297263, No Iterations 4
smoothSolver:  Solving for Uz, Initial residual = 0.0864308, Final residual = 0.00274018, No Iterations 4
GAMG:  Solving for p, Initial residual = 0.000845385, Final residual = 7.51672e-06, No Iterations 5
time step continuity errors : sum local = 0.0154444, global = 0.00119651, cumulative = 0.0048442
smoothSolver:  Solving for nuTilda, Initial residual = 0.0205396, Final residual = 0.00121545, No Iterations 6
bounding nuTilda, min: -0.00903811 max: 0.0376177 average: 0.00306809
ExecutionTime = 89.6938 s  ClockTime = 90 s

Time = 22s

smoothSolver:  Solving for Ux, Initial residual = 0.0297205, Final residual = 0.00098154, No Iterations 4
smoothSolver:  Solving for Uy, Initial residual = 0.091425, Final residual = 0.00263959, No Iterations 4
smoothSolver:  Solving for Uz, Initial residual = 0.080365, Final residual = 0.00223797, No Iterations 4
GAMG:  Solving for p, Initial residual = 0.000589322, Final residual = 4.60095e-06, No Iterations 5
time step continuity errors : sum local = 0.0134603, global = 0.000230248, cumulative = 0.00507445
smoothSolver:  Solving for nuTilda, Initial residual = 0.0206154, Final residual = 0.00117803, No Iterations 6
bounding nuTilda, min: -0.0088669 max: 0.0376108 average: 0.00315127
ExecutionTime = 93.1066 s  ClockTime = 93 s

Time = 23s

smoothSolver:  Solving for Ux, Initial residual = 0.0293952, Final residual = 0.000983609, No Iterations 4
smoothSolver:  Solving for Uy, Initial residual = 0.0887798, Final residual = 0.00257828, No Iterations 4
smoothSolver:  Solving for Uz, Initial residual = 0.0777909, Final residual = 0.00225561, No Iterations 4
GAMG:  Solving for p, Initial residual = 0.000506283, Final residual = 4.95272e-06, No Iterations 5
time step continuity errors : sum local = 0.0165234, global = 0.00137974, cumulative = 0.00645419
smoothSolver:  Solving for nuTilda, Initial residual = 0.020803, Final residual = 0.00114018, No Iterations 6
bounding nuTilda, min: -0.00903553 max: 0.0376107 average: 0.00323227
ExecutionTime = 96.8485 s  ClockTime = 97 s

Time = 24s

smoothSolver:  Solving for Ux, Initial residual = 0.0272423, Final residual = 0.000839122, No Iterations 4
smoothSolver:  Solving for Uy, Initial residual = 0.089266, Final residual = 0.00247065, No Iterations 4
smoothSolver:  Solving for Uz, Initial residual = 0.0771606, Final residual = 0.00215118, No Iterations 4
GAMG:  Solving for p, Initial residual = 0.000512955, Final residual = 4.75498e-06, No Iterations 5
time step continuity errors : sum local = 0.015408, global = 0.000394904, cumulative = 0.00684909
smoothSolver:  Solving for nuTilda, Initial residual = 0.0211677, Final residual = 0.0011082, No Iterations 6
bounding nuTilda, min: -0.00887155 max: 0.0376084 average: 0.00331226
ExecutionTime = 100.222 s  ClockTime = 100 s

Time = 25s

smoothSolver:  Solving for Ux, Initial residual = 0.0258607, Final residual = 0.000816261, No Iterations 4
smoothSolver:  Solving for Uy, Initial residual = 0.0917784, Final residual = 0.00240092, No Iterations 4
smoothSolver:  Solving for Uz, Initial residual = 0.0782179, Final residual = 0.00191484, No Iterations 4
GAMG:  Solving for p, Initial residual = 0.000529738, Final residual = 4.22621e-06, No Iterations 5
time step continuity errors : sum local = 0.0130862, global = 6.39019e-05, cumulative = 0.006913
smoothSolver:  Solving for nuTilda, Initial residual = 0.0216607, Final residual = 0.00107586, No Iterations 6
bounding nuTilda, min: -0.00903763 max: 0.0376072 average: 0.00339061
ExecutionTime = 104.072 s  ClockTime = 104 s

Time = 26s

smoothSolver:  Solving for Ux, Initial residual = 0.0250577, Final residual = 0.0007603, No Iterations 4
smoothSolver:  Solving for Uy, Initial residual = 0.093118, Final residual = 0.00248056, No Iterations 4
smoothSolver:  Solving for Uz, Initial residual = 0.0784247, Final residual = 0.00199428, No Iterations 4
GAMG:  Solving for p, Initial residual = 0.000486651, Final residual = 3.55244e-06, No Iterations 5
time step continuity errors : sum local = 0.0118171, global = -0.000438681, cumulative = 0.00647432
smoothSolver:  Solving for nuTilda, Initial residual = 0.0223163, Final residual = 0.00104363, No Iterations 6
bounding nuTilda, min: -0.00887257 max: 0.0376108 average: 0.00346857
ExecutionTime = 107.007 s  ClockTime = 107 s

Time = 27s

smoothSolver:  Solving for Ux, Initial residual = 0.0246332, Final residual = 0.000682225, No Iterations 4
smoothSolver:  Solving for Uy, Initial residual = 0.0921473, Final residual = 0.00244003, No Iterations 4
smoothSolver:  Solving for Uz, Initial residual = 0.0779826, Final residual = 0.00204263, No Iterations 4
GAMG:  Solving for p, Initial residual = 0.000425105, Final residual = 3.27704e-06, No Iterations 5
time step continuity errors : sum local = 0.0121232, global = -0.000140402, cumulative = 0.00633391
smoothSolver:  Solving for nuTilda, Initial residual = 0.0230676, Final residual = 0.00100856, No Iterations 6
bounding nuTilda, min: -0.00903747 max: 0.0376097 average: 0.00354636
ExecutionTime = 110.11 s  ClockTime = 110 s

Time = 28s

smoothSolver:  Solving for Ux, Initial residual = 0.024033, Final residual = 0.000631879, No Iterations 4
smoothSolver:  Solving for Uy, Initial residual = 0.0912568, Final residual = 0.00233776, No Iterations 4
smoothSolver:  Solving for Uz, Initial residual = 0.0769737, Final residual = 0.00197274, No Iterations 4
GAMG:  Solving for p, Initial residual = 0.000366424, Final residual = 2.87158e-06, No Iterations 5
time step continuity errors : sum local = 0.0119586, global = -8.69963e-05, cumulative = 0.00624692
smoothSolver:  Solving for nuTilda, Initial residual = 0.023956, Final residual = 0.00237497, No Iterations 4
bounding nuTilda, min: -0.00886979 max: 0.0376115 average: 0.00362144
ExecutionTime = 113.223 s  ClockTime = 113 s

Time = 29s

smoothSolver:  Solving for Ux, Initial residual = 0.0234314, Final residual = 0.000628329, No Iterations 4
smoothSolver:  Solving for Uy, Initial residual = 0.0916416, Final residual = 0.00235292, No Iterations 4
smoothSolver:  Solving for Uz, Initial residual = 0.0771299, Final residual = 0.0019943, No Iterations 4
GAMG:  Solving for p, Initial residual = 0.000337572, Final residual = 2.58487e-06, No Iterations 5
time step continuity errors : sum local = 0.0115424, global = 4.27428e-05, cumulative = 0.00628966
smoothSolver:  Solving for nuTilda, Initial residual = 0.0250032, Final residual = 0.00231838, No Iterations 4
bounding nuTilda, min: -0.00903644 max: 0.0376097 average: 0.0036996
ExecutionTime = 116.304 s  ClockTime = 116 s

Time = 30s

smoothSolver:  Solving for Ux, Initial residual = 0.0227505, Final residual = 0.000623613, No Iterations 4
smoothSolver:  Solving for Uy, Initial residual = 0.0919703, Final residual = 0.00232859, No Iterations 4
smoothSolver:  Solving for Uz, Initial residual = 0.0785855, Final residual = 0.00203269, No Iterations 4
GAMG:  Solving for p, Initial residual = 0.00032616, Final residual = 2.51282e-06, No Iterations 5
time step continuity errors : sum local = 0.0117219, global = -2.98814e-05, cumulative = 0.00625978
smoothSolver:  Solving for nuTilda, Initial residual = 0.0261418, Final residual = 0.00226553, No Iterations 4
bounding nuTilda, min: -0.00887016 max: 0.0395324 average: 0.00378275
ExecutionTime = 119.952 s  ClockTime = 120 s

Time = 31s

smoothSolver:  Solving for Ux, Initial residual = 0.0224135, Final residual = 0.000594418, No Iterations 4
smoothSolver:  Solving for Uy, Initial residual = 0.0920407, Final residual = 0.00225023, No Iterations 4
smoothSolver:  Solving for Uz, Initial residual = 0.0795559, Final residual = 0.00197111, No Iterations 4
GAMG:  Solving for p, Initial residual = 0.00032091, Final residual = 2.49431e-06, No Iterations 5
time step continuity errors : sum local = 0.0118702, global = 5.82043e-05, cumulative = 0.00631798
smoothSolver:  Solving for nuTilda, Initial residual = 0.0272966, Final residual = 0.00220339, No Iterations 4
bounding nuTilda, min: -0.00903716 max: 0.0422776 average: 0.00387046
ExecutionTime = 123.853 s  ClockTime = 124 s

Time = 32s

smoothSolver:  Solving for Ux, Initial residual = 0.0228174, Final residual = 0.000571306, No Iterations 4
smoothSolver:  Solving for Uy, Initial residual = 0.0916932, Final residual = 0.00219282, No Iterations 4
smoothSolver:  Solving for Uz, Initial residual = 0.0797524, Final residual = 0.00193989, No Iterations 4
GAMG:  Solving for p, Initial residual = 0.000316153, Final residual = 2.43535e-06, No Iterations 5
time step continuity errors : sum local = 0.0117178, global = 0.000355047, cumulative = 0.00667303
smoothSolver:  Solving for nuTilda, Initial residual = 0.0285796, Final residual = 0.00214034, No Iterations 4
bounding nuTilda, min: -0.00887147 max: 0.0456265 average: 0.00396427
ExecutionTime = 127.992 s  ClockTime = 128 s

Time = 33s

smoothSolver:  Solving for Ux, Initial residual = 0.0229587, Final residual = 0.000574872, No Iterations 4
smoothSolver:  Solving for Uy, Initial residual = 0.0905611, Final residual = 0.00211035, No Iterations 4
smoothSolver:  Solving for Uz, Initial residual = 0.0787481, Final residual = 0.0019188, No Iterations 4
GAMG:  Solving for p, Initial residual = 0.000305573, Final residual = 2.99035e-06, No Iterations 4
time step continuity errors : sum local = 0.0147323, global = 0.000254505, cumulative = 0.00692754
smoothSolver:  Solving for nuTilda, Initial residual = 0.0298237, Final residual = 0.00207242, No Iterations 4
bounding nuTilda, min: -0.00903723 max: 0.0499353 average: 0.00406423
ExecutionTime = 131.696 s  ClockTime = 132 s

Time = 34s

smoothSolver:  Solving for Ux, Initial residual = 0.0224701, Final residual = 0.000582592, No Iterations 4
smoothSolver:  Solving for Uy, Initial residual = 0.088986, Final residual = 0.00197227, No Iterations 4
smoothSolver:  Solving for Uz, Initial residual = 0.0776246, Final residual = 0.00177206, No Iterations 4
GAMG:  Solving for p, Initial residual = 0.000294366, Final residual = 2.15262e-06, No Iterations 5
time step continuity errors : sum local = 0.0108749, global = 0.000316721, cumulative = 0.00724426
smoothSolver:  Solving for nuTilda, Initial residual = 0.0310796, Final residual = 0.00200386, No Iterations 4
bounding nuTilda, min: -0.00887059 max: 0.0529977 average: 0.00417238
ExecutionTime = 135.014 s  ClockTime = 135 s

Time = 35s

smoothSolver:  Solving for Ux, Initial residual = 0.0215023, Final residual = 0.000567059, No Iterations 4
smoothSolver:  Solving for Uy, Initial residual = 0.0875036, Final residual = 0.00191254, No Iterations 4
smoothSolver:  Solving for Uz, Initial residual = 0.077307, Final residual = 0.00162275, No Iterations 4
GAMG:  Solving for p, Initial residual = 0.000279069, Final residual = 2.07832e-06, No Iterations 5
time step continuity errors : sum local = 0.010971, global = 0.000199293, cumulative = 0.00744355
smoothSolver:  Solving for nuTilda, Initial residual = 0.0322488, Final residual = 0.00192863, No Iterations 4
bounding nuTilda, min: -0.00903675 max: 0.0550405 average: 0.00428842
ExecutionTime = 137.83 s  ClockTime = 138 s

Time = 36s

smoothSolver:  Solving for Ux, Initial residual = 0.0204931, Final residual = 0.000529488, No Iterations 4
smoothSolver:  Solving for Uy, Initial residual = 0.0863224, Final residual = 0.00195459, No Iterations 4
smoothSolver:  Solving for Uz, Initial residual = 0.0764714, Final residual = 0.00159621, No Iterations 4
GAMG:  Solving for p, Initial residual = 0.000260646, Final residual = 2.5282e-06, No Iterations 4
time step continuity errors : sum local = 0.0140414, global = -0.000644863, cumulative = 0.00679868
smoothSolver:  Solving for nuTilda, Initial residual = 0.0333732, Final residual = 0.00185412, No Iterations 4
bounding nuTilda, min: -0.00886991 max: 0.0563213 average: 0.00441355
ExecutionTime = 140.561 s  ClockTime = 140 s

Time = 37s

smoothSolver:  Solving for Ux, Initial residual = 0.0200346, Final residual = 0.00048945, No Iterations 4
smoothSolver:  Solving for Uy, Initial residual = 0.0855565, Final residual = 0.00198286, No Iterations 4
smoothSolver:  Solving for Uz, Initial residual = 0.0745527, Final residual = 0.00162435, No Iterations 4
GAMG:  Solving for p, Initial residual = 0.000246512, Final residual = 1.96717e-06, No Iterations 5
time step continuity errors : sum local = 0.0114278, global = -0.000510397, cumulative = 0.00628829
smoothSolver:  Solving for nuTilda, Initial residual = 0.0343891, Final residual = 0.00177716, No Iterations 4
bounding nuTilda, min: -0.00903676 max: 0.0573181 average: 0.00454659
ExecutionTime = 143.735 s  ClockTime = 144 s

Time = 38s

smoothSolver:  Solving for Ux, Initial residual = 0.0196492, Final residual = 0.000454736, No Iterations 4
smoothSolver:  Solving for Uy, Initial residual = 0.0839668, Final residual = 0.00195214, No Iterations 4
smoothSolver:  Solving for Uz, Initial residual = 0.0720927, Final residual = 0.00159461, No Iterations 4
GAMG:  Solving for p, Initial residual = 0.000226738, Final residual = 1.8758e-06, No Iterations 5
time step continuity errors : sum local = 0.0115869, global = -0.000213742, cumulative = 0.00607455
smoothSolver:  Solving for nuTilda, Initial residual = 0.0353208, Final residual = 0.0016961, No Iterations 4
bounding nuTilda, min: -0.00887013 max: 0.059249 average: 0.0046879
ExecutionTime = 146.56 s  ClockTime = 146 s

Time = 39s

smoothSolver:  Solving for Ux, Initial residual = 0.0188613, Final residual = 0.000419667, No Iterations 4
smoothSolver:  Solving for Uy, Initial residual = 0.0820258, Final residual = 0.00187451, No Iterations 4
smoothSolver:  Solving for Uz, Initial residual = 0.0701292, Final residual = 0.00149448, No Iterations 4
GAMG:  Solving for p, Initial residual = 0.000205519, Final residual = 1.70687e-06, No Iterations 5
time step continuity errors : sum local = 0.0113035, global = -0.000218962, cumulative = 0.00585558
smoothSolver:  Solving for nuTilda, Initial residual = 0.0360842, Final residual = 0.00160721, No Iterations 4
bounding nuTilda, min: -0.00903693 max: 0.0611549 average: 0.00483584
ExecutionTime = 149.275 s  ClockTime = 149 s

Time = 40s

smoothSolver:  Solving for Ux, Initial residual = 0.0177544, Final residual = 0.000387138, No Iterations 4
smoothSolver:  Solving for Uy, Initial residual = 0.0797682, Final residual = 0.00179386, No Iterations 4
smoothSolver:  Solving for Uz, Initial residual = 0.0693843, Final residual = 0.00139306, No Iterations 4
GAMG:  Solving for p, Initial residual = 0.000184726, Final residual = 1.53844e-06, No Iterations 5
time step continuity errors : sum local = 0.0107372, global = -0.000362409, cumulative = 0.00549318
smoothSolver:  Solving for nuTilda, Initial residual = 0.036821, Final residual = 0.00152438, No Iterations 4
bounding nuTilda, min: -0.00887052 max: 0.0628864 average: 0.0049906
ExecutionTime = 152.012 s  ClockTime = 152 s

Time = 41s

smoothSolver:  Solving for Ux, Initial residual = 0.0166983, Final residual = 0.000360506, No Iterations 4
smoothSolver:  Solving for Uy, Initial residual = 0.0774714, Final residual = 0.00175158, No Iterations 4
smoothSolver:  Solving for Uz, Initial residual = 0.0690081, Final residual = 0.0013488, No Iterations 4
GAMG:  Solving for p, Initial residual = 0.000167515, Final residual = 1.42199e-06, No Iterations 5
time step continuity errors : sum local = 0.0103075, global = -7.75036e-05, cumulative = 0.00541567
smoothSolver:  Solving for nuTilda, Initial residual = 0.037419, Final residual = 0.00144458, No Iterations 4
bounding nuTilda, min: -0.00903691 max: 0.0644422 average: 0.0051512
ExecutionTime = 155.094 s  ClockTime = 155 s

Time = 42s

smoothSolver:  Solving for Ux, Initial residual = 0.0159864, Final residual = 0.000340474, No Iterations 4
smoothSolver:  Solving for Uy, Initial residual = 0.075668, Final residual = 0.00173348, No Iterations 4
smoothSolver:  Solving for Uz, Initial residual = 0.0679333, Final residual = 0.00135028, No Iterations 4
GAMG:  Solving for p, Initial residual = 0.000151819, Final residual = 1.30014e-06, No Iterations 5
time step continuity errors : sum local = 0.00979021, global = 0.000214689, cumulative = 0.00563036
smoothSolver:  Solving for nuTilda, Initial residual = 0.0379084, Final residual = 0.00136996, No Iterations 4
bounding nuTilda, min: -0.00887044 max: 0.0657408 average: 0.00531889
ExecutionTime = 157.908 s  ClockTime = 158 s

Time = 43s

smoothSolver:  Solving for Ux, Initial residual = 0.0154862, Final residual = 0.00033354, No Iterations 4
smoothSolver:  Solving for Uy, Initial residual = 0.0736817, Final residual = 0.00168921, No Iterations 4
smoothSolver:  Solving for Uz, Initial residual = 0.0659972, Final residual = 0.00133004, No Iterations 4
GAMG:  Solving for p, Initial residual = 0.000139304, Final residual = 1.18636e-06, No Iterations 5
time step continuity errors : sum local = 0.0092374, global = 0.000254631, cumulative = 0.00588499
smoothSolver:  Solving for nuTilda, Initial residual = 0.0381771, Final residual = 0.00129933, No Iterations 4
bounding nuTilda, min: -0.00903688 max: 0.0679477 average: 0.00549319
ExecutionTime = 160.854 s  ClockTime = 161 s

Time = 44s

smoothSolver:  Solving for Ux, Initial residual = 0.0149355, Final residual = 0.000329413, No Iterations 4
smoothSolver:  Solving for Uy, Initial residual = 0.0716382, Final residual = 0.00161733, No Iterations 4
smoothSolver:  Solving for Uz, Initial residual = 0.0638691, Final residual = 0.00127287, No Iterations 4
GAMG:  Solving for p, Initial residual = 0.000128953, Final residual = 1.1396e-06, No Iterations 5
time step continuity errors : sum local = 0.00911018, global = 0.00026408, cumulative = 0.00614907
smoothSolver:  Solving for nuTilda, Initial residual = 0.0383642, Final residual = 0.0012409, No Iterations 4
bounding nuTilda, min: -0.00887021 max: 0.0702769 average: 0.00567597
ExecutionTime = 163.598 s  ClockTime = 163 s

Time = 45s

smoothSolver:  Solving for Ux, Initial residual = 0.014175, Final residual = 0.000321831, No Iterations 4
smoothSolver:  Solving for Uy, Initial residual = 0.0697725, Final residual = 0.00156966, No Iterations 4
smoothSolver:  Solving for Uz, Initial residual = 0.0619808, Final residual = 0.00122652, No Iterations 4
GAMG:  Solving for p, Initial residual = 0.000120157, Final residual = 1.10078e-06, No Iterations 5
time step continuity errors : sum local = 0.00902853, global = 0.000298665, cumulative = 0.00644774
smoothSolver:  Solving for nuTilda, Initial residual = 0.0383449, Final residual = 0.00118553, No Iterations 4
bounding nuTilda, min: -0.00903685 max: 0.0725928 average: 0.00586679
ExecutionTime = 166.46 s  ClockTime = 166 s

Time = 46s

smoothSolver:  Solving for Ux, Initial residual = 0.0132846, Final residual = 0.00030533, No Iterations 4
smoothSolver:  Solving for Uy, Initial residual = 0.0676876, Final residual = 0.00156911, No Iterations 4
smoothSolver:  Solving for Uz, Initial residual = 0.0605012, Final residual = 0.00124061, No Iterations 4
GAMG:  Solving for p, Initial residual = 0.000112265, Final residual = 9.94338e-07, No Iterations 5
time step continuity errors : sum local = 0.00839168, global = 0.000193309, cumulative = 0.00664104
smoothSolver:  Solving for nuTilda, Initial residual = 0.0382028, Final residual = 0.00113644, No Iterations 4
bounding nuTilda, min: -0.0088703 max: 0.074828 average: 0.00606579
ExecutionTime = 169.267 s  ClockTime = 169 s

Time = 47s

smoothSolver:  Solving for Ux, Initial residual = 0.0125477, Final residual = 0.000284801, No Iterations 4
smoothSolver:  Solving for Uy, Initial residual = 0.0652471, Final residual = 0.00155059, No Iterations 4
smoothSolver:  Solving for Uz, Initial residual = 0.0580764, Final residual = 0.00124639, No Iterations 4
GAMG:  Solving for p, Initial residual = 0.000103763, Final residual = 8.94431e-07, No Iterations 5
time step continuity errors : sum local = 0.00777436, global = 0.000106112, cumulative = 0.00674716
smoothSolver:  Solving for nuTilda, Initial residual = 0.0378541, Final residual = 0.00109079, No Iterations 4
bounding nuTilda, min: -0.00903685 max: 0.0769755 average: 0.00627023
ExecutionTime = 172.042 s  ClockTime = 172 s

Time = 48s

smoothSolver:  Solving for Ux, Initial residual = 0.0119608, Final residual = 0.000269499, No Iterations 4
smoothSolver:  Solving for Uy, Initial residual = 0.0625003, Final residual = 0.001494, No Iterations 4
smoothSolver:  Solving for Uz, Initial residual = 0.0548973, Final residual = 0.00119434, No Iterations 4
GAMG:  Solving for p, Initial residual = 9.5624e-05, Final residual = 8.22351e-07, No Iterations 5
time step continuity errors : sum local = 0.00734626, global = 7.9591e-05, cumulative = 0.00682675
smoothSolver:  Solving for nuTilda, Initial residual = 0.0374234, Final residual = 0.00104806, No Iterations 4
bounding nuTilda, min: -0.0088704 max: 0.0790203 average: 0.00647793
ExecutionTime = 174.749 s  ClockTime = 175 s

Time = 49s

smoothSolver:  Solving for Ux, Initial residual = 0.011423, Final residual = 0.000264088, No Iterations 4
smoothSolver:  Solving for Uy, Initial residual = 0.0597192, Final residual = 0.00139582, No Iterations 4
smoothSolver:  Solving for Uz, Initial residual = 0.0516927, Final residual = 0.00110298, No Iterations 4
GAMG:  Solving for p, Initial residual = 8.74788e-05, Final residual = 7.60133e-07, No Iterations 5
time step continuity errors : sum local = 0.00695622, global = 7.71381e-05, cumulative = 0.00690389
smoothSolver:  Solving for nuTilda, Initial residual = 0.036815, Final residual = 0.00100486, No Iterations 4
bounding nuTilda, min: -0.00903691 max: 0.0808922 average: 0.00668557
ExecutionTime = 177.514 s  ClockTime = 177 s

Time = 50s

smoothSolver:  Solving for Ux, Initial residual = 0.0107606, Final residual = 0.000251011, No Iterations 4
smoothSolver:  Solving for Uy, Initial residual = 0.0574926, Final residual = 0.0013214, No Iterations 4
smoothSolver:  Solving for Uz, Initial residual = 0.0491122, Final residual = 0.00101902, No Iterations 4
GAMG:  Solving for p, Initial residual = 7.96037e-05, Final residual = 7.00973e-07, No Iterations 5
time step continuity errors : sum local = 0.00655597, global = 5.47548e-05, cumulative = 0.00695864
smoothSolver:  Solving for nuTilda, Initial residual = 0.0360241, Final residual = 0.00096493, No Iterations 4
bounding nuTilda, min: -0.00887036 max: 0.0826709 average: 0.00689261
ExecutionTime = 180.286 s  ClockTime = 180 s

Time = 51s

smoothSolver:  Solving for Ux, Initial residual = 0.0100335, Final residual = 0.000231783, No Iterations 4
smoothSolver:  Solving for Uy, Initial residual = 0.0556292, Final residual = 0.00129984, No Iterations 4
smoothSolver:  Solving for Uz, Initial residual = 0.0472638, Final residual = 0.000971655, No Iterations 4
GAMG:  Solving for p, Initial residual = 7.21187e-05, Final residual = 6.455e-07, No Iterations 5
time step continuity errors : sum local = 0.00616796, global = -3.32093e-05, cumulative = 0.00692543
smoothSolver:  Solving for nuTilda, Initial residual = 0.0350673, Final residual = 0.000925416, No Iterations 4
bounding nuTilda, min: -0.00903689 max: 0.0844575 average: 0.00709713
ExecutionTime = 183.357 s  ClockTime = 183 s

Time = 52s

smoothSolver:  Solving for Ux, Initial residual = 0.00942342, Final residual = 0.000212727, No Iterations 4
smoothSolver:  Solving for Uy, Initial residual = 0.0534408, Final residual = 0.00126621, No Iterations 4
smoothSolver:  Solving for Uz, Initial residual = 0.0455573, Final residual = 0.000958468, No Iterations 4
GAMG:  Solving for p, Initial residual = 6.52384e-05, Final residual = 5.92811e-07, No Iterations 5
time step continuity errors : sum local = 0.00578946, global = -0.000129641, cumulative = 0.00679579
smoothSolver:  Solving for nuTilda, Initial residual = 0.0340288, Final residual = 0.000886918, No Iterations 4
bounding nuTilda, min: -0.00887031 max: 0.0861515 average: 0.00729873
ExecutionTime = 185.966 s  ClockTime = 186 s

Time = 53s

smoothSolver:  Solving for Ux, Initial residual = 0.00895089, Final residual = 0.000202987, No Iterations 4
smoothSolver:  Solving for Uy, Initial residual = 0.0509934, Final residual = 0.00120329, No Iterations 4
smoothSolver:  Solving for Uz, Initial residual = 0.043279, Final residual = 0.00092227, No Iterations 4
GAMG:  Solving for p, Initial residual = 5.84768e-05, Final residual = 5.24133e-07, No Iterations 5
time step continuity errors : sum local = 0.00525731, global = -0.000122632, cumulative = 0.00667316
smoothSolver:  Solving for nuTilda, Initial residual = 0.0328026, Final residual = 0.000844306, No Iterations 4
bounding nuTilda, min: -0.00903682 max: 0.087663 average: 0.00749546
ExecutionTime = 188.719 s  ClockTime = 189 s

Time = 54s

smoothSolver:  Solving for Ux, Initial residual = 0.00857636, Final residual = 0.000195802, No Iterations 4
smoothSolver:  Solving for Uy, Initial residual = 0.0486187, Final residual = 0.00112966, No Iterations 4
smoothSolver:  Solving for Uz, Initial residual = 0.0408609, Final residual = 0.000876578, No Iterations 4
GAMG:  Solving for p, Initial residual = 5.24135e-05, Final residual = 4.60335e-07, No Iterations 5
time step continuity errors : sum local = 0.00476435, global = -0.00010968, cumulative = 0.00656348
smoothSolver:  Solving for nuTilda, Initial residual = 0.0314927, Final residual = 0.000802547, No Iterations 4
bounding nuTilda, min: -0.0088703 max: 0.0890385 average: 0.0076872
ExecutionTime = 191.454 s  ClockTime = 191 s

Time = 55s

smoothSolver:  Solving for Ux, Initial residual = 0.00817882, Final residual = 0.000185205, No Iterations 4
smoothSolver:  Solving for Uy, Initial residual = 0.0467203, Final residual = 0.00107557, No Iterations 4
smoothSolver:  Solving for Uz, Initial residual = 0.0387965, Final residual = 0.000844737, No Iterations 4
GAMG:  Solving for p, Initial residual = 4.73289e-05, Final residual = 4.22085e-07, No Iterations 5
time step continuity errors : sum local = 0.0044894, global = -9.00778e-05, cumulative = 0.0064734
smoothSolver:  Solving for nuTilda, Initial residual = 0.0300499, Final residual = 0.000762636, No Iterations 4
bounding nuTilda, min: -0.00903688 max: 0.0903445 average: 0.00787256
ExecutionTime = 194.106 s  ClockTime = 194 s

Time = 56s

smoothSolver:  Solving for Ux, Initial residual = 0.00772043, Final residual = 0.000173876, No Iterations 4
smoothSolver:  Solving for Uy, Initial residual = 0.0452592, Final residual = 0.00105473, No Iterations 4
smoothSolver:  Solving for Uz, Initial residual = 0.0372523, Final residual = 0.000819567, No Iterations 4
GAMG:  Solving for p, Initial residual = 4.33492e-05, Final residual = 3.83254e-07, No Iterations 5
time step continuity errors : sum local = 0.00416076, global = -8.64815e-05, cumulative = 0.00638692
smoothSolver:  Solving for nuTilda, Initial residual = 0.0286295, Final residual = 0.000728151, No Iterations 4
bounding nuTilda, min: -0.00887032 max: 0.0918179 average: 0.0080523
ExecutionTime = 197.049 s  ClockTime = 197 s

Time = 57s

smoothSolver:  Solving for Ux, Initial residual = 0.00728398, Final residual = 0.000165087, No Iterations 4
smoothSolver:  Solving for Uy, Initial residual = 0.0437043, Final residual = 0.00103556, No Iterations 4
smoothSolver:  Solving for Uz, Initial residual = 0.0359247, Final residual = 0.000790193, No Iterations 4
GAMG:  Solving for p, Initial residual = 3.98301e-05, Final residual = 3.57271e-07, No Iterations 5
time step continuity errors : sum local = 0.00394372, global = -6.50984e-05, cumulative = 0.00632182
smoothSolver:  Solving for nuTilda, Initial residual = 0.0271647, Final residual = 0.000695238, No Iterations 4
bounding nuTilda, min: -0.00903689 max: 0.0932498 average: 0.00822553
ExecutionTime = 200.628 s  ClockTime = 201 s

Time = 58s

smoothSolver:  Solving for Ux, Initial residual = 0.00690186, Final residual = 0.000160416, No Iterations 4
smoothSolver:  Solving for Uy, Initial residual = 0.0418504, Final residual = 0.00100401, No Iterations 4
smoothSolver:  Solving for Uz, Initial residual = 0.0344604, Final residual = 0.000758087, No Iterations 4
GAMG:  Solving for p, Initial residual = 3.64127e-05, Final residual = 3.35391e-07, No Iterations 5
time step continuity errors : sum local = 0.00375988, global = -5.8006e-05, cumulative = 0.00626381
smoothSolver:  Solving for nuTilda, Initial residual = 0.025846, Final residual = 0.00066748, No Iterations 4
bounding nuTilda, min: -0.00887036 max: 0.094496 average: 0.00839302
ExecutionTime = 203.692 s  ClockTime = 204 s

Time = 59s

smoothSolver:  Solving for Ux, Initial residual = 0.00655431, Final residual = 0.000154568, No Iterations 4
smoothSolver:  Solving for Uy, Initial residual = 0.0398284, Final residual = 0.000965826, No Iterations 4
smoothSolver:  Solving for Uz, Initial residual = 0.0327285, Final residual = 0.000731432, No Iterations 4
GAMG:  Solving for p, Initial residual = 3.31804e-05, Final residual = 3.09668e-07, No Iterations 5
time step continuity errors : sum local = 0.00352533, global = -5.82112e-05, cumulative = 0.0062056
smoothSolver:  Solving for nuTilda, Initial residual = 0.0245811, Final residual = 0.000642681, No Iterations 4
bounding nuTilda, min: -0.00903685 max: 0.0956863 average: 0.0085537
ExecutionTime = 207.534 s  ClockTime = 207 s

Time = 60s

smoothSolver:  Solving for Ux, Initial residual = 0.00623671, Final residual = 0.000146809, No Iterations 4
smoothSolver:  Solving for Uy, Initial residual = 0.0378578, Final residual = 0.000927755, No Iterations 4
smoothSolver:  Solving for Uz, Initial residual = 0.0309164, Final residual = 0.000708839, No Iterations 4
GAMG:  Solving for p, Initial residual = 3.0189e-05, Final residual = 2.84526e-07, No Iterations 5
time step continuity errors : sum local = 0.00328425, global = -5.81134e-05, cumulative = 0.00614749
smoothSolver:  Solving for nuTilda, Initial residual = 0.0234601, Final residual = 0.000623071, No Iterations 4
bounding nuTilda, min: -0.00887032 max: 0.0965263 average: 0.00870876
ExecutionTime = 210.722 s  ClockTime = 211 s

Time = 61s

smoothSolver:  Solving for Ux, Initial residual = 0.00591265, Final residual = 0.000139433, No Iterations 4
smoothSolver:  Solving for Uy, Initial residual = 0.0363071, Final residual = 0.000882059, No Iterations 4
smoothSolver:  Solving for Uz, Initial residual = 0.029192, Final residual = 0.000682521, No Iterations 4
GAMG:  Solving for p, Initial residual = 2.73751e-05, Final residual = 2.62462e-07, No Iterations 5
time step continuity errors : sum local = 0.00306039, global = -5.82384e-05, cumulative = 0.00608925
smoothSolver:  Solving for nuTilda, Initial residual = 0.0223892, Final residual = 0.000604418, No Iterations 4
bounding nuTilda, min: -0.00903687 max: 0.0978255 average: 0.0088578
ExecutionTime = 214.007 s  ClockTime = 214 s

Time = 62s

smoothSolver:  Solving for Ux, Initial residual = 0.00559176, Final residual = 0.000134864, No Iterations 4
smoothSolver:  Solving for Uy, Initial residual = 0.0349853, Final residual = 0.000840444, No Iterations 4
smoothSolver:  Solving for Uz, Initial residual = 0.0276644, Final residual = 0.000651444, No Iterations 4
GAMG:  Solving for p, Initial residual = 2.48875e-05, Final residual = 2.40592e-07, No Iterations 5
time step continuity errors : sum local = 0.0028261, global = -6.03907e-05, cumulative = 0.00602886
smoothSolver:  Solving for nuTilda, Initial residual = 0.0214327, Final residual = 0.000585647, No Iterations 4
bounding nuTilda, min: -0.00887028 max: 0.0988122 average: 0.00900214
ExecutionTime = 217.147 s  ClockTime = 217 s

Time = 63s

smoothSolver:  Solving for Ux, Initial residual = 0.00529083, Final residual = 0.000129869, No Iterations 4
smoothSolver:  Solving for Uy, Initial residual = 0.0336606, Final residual = 0.000806782, No Iterations 4
smoothSolver:  Solving for Uz, Initial residual = 0.0262493, Final residual = 0.000620721, No Iterations 4
GAMG:  Solving for p, Initial residual = 2.2838e-05, Final residual = 2.24128e-07, No Iterations 5
time step continuity errors : sum local = 0.00264768, global = -4.96419e-05, cumulative = 0.00597922
smoothSolver:  Solving for nuTilda, Initial residual = 0.0205241, Final residual = 0.000563545, No Iterations 4
bounding nuTilda, min: -0.00903688 max: 0.0983088 average: 0.00914111
ExecutionTime = 220.659 s  ClockTime = 221 s

Time = 64s

smoothSolver:  Solving for Ux, Initial residual = 0.00500739, Final residual = 0.000123543, No Iterations 4
smoothSolver:  Solving for Uy, Initial residual = 0.0321662, Final residual = 0.000776728, No Iterations 4
smoothSolver:  Solving for Uz, Initial residual = 0.0248808, Final residual = 0.000589876, No Iterations 4
GAMG:  Solving for p, Initial residual = 2.10231e-05, Final residual = 2.10209e-07, No Iterations 5
time step continuity errors : sum local = 0.0024966, global = -2.72727e-05, cumulative = 0.00595195
smoothSolver:  Solving for nuTilda, Initial residual = 0.0196777, Final residual = 0.000540417, No Iterations 4
bounding nuTilda, min: -0.00887034 max: 0.0978352 average: 0.00927597
ExecutionTime = 224.257 s  ClockTime = 224 s

Time = 65s

smoothSolver:  Solving for Ux, Initial residual = 0.00474697, Final residual = 0.000116863, No Iterations 4
smoothSolver:  Solving for Uy, Initial residual = 0.0305883, Final residual = 0.000745534, No Iterations 4
smoothSolver:  Solving for Uz, Initial residual = 0.0235281, Final residual = 0.000557981, No Iterations 4
GAMG:  Solving for p, Initial residual = 1.94106e-05, Final residual = 1.71204e-07, No Iterations 6
time step continuity errors : sum local = 0.00204414, global = -4.06113e-06, cumulative = 0.00594788
smoothSolver:  Solving for nuTilda, Initial residual = 0.0188193, Final residual = 0.000515096, No Iterations 4
bounding nuTilda, min: -0.00903685 max: 0.0978204 average: 0.00940629
ExecutionTime = 227.182 s  ClockTime = 227 s

Time = 66s

smoothSolver:  Solving for Ux, Initial residual = 0.00452431, Final residual = 0.000110323, No Iterations 4
smoothSolver:  Solving for Uy, Initial residual = 0.0291369, Final residual = 0.000713136, No Iterations 4
smoothSolver:  Solving for Uz, Initial residual = 0.0222344, Final residual = 0.000531275, No Iterations 4
GAMG:  Solving for p, Initial residual = 1.80703e-05, Final residual = 1.78312e-07, No Iterations 5
time step continuity errors : sum local = 0.00214002, global = 2.0546e-05, cumulative = 0.00596843
smoothSolver:  Solving for nuTilda, Initial residual = 0.0179518, Final residual = 0.000489881, No Iterations 4
bounding nuTilda, min: -0.00887034 max: 0.0988988 average: 0.0095328
ExecutionTime = 229.989 s  ClockTime = 230 s

regIOobject::readIfModified() : 
    Re-reading object fvSolution from file "/home/tiago/OpenFOAM/tiago-11/run/wind_tunnel/system/fvSolution"
Time = 67s

smoothSolver:  Solving for Ux, Initial residual = 0.0043018, Final residual = 0.000104579, No Iterations 4
smoothSolver:  Solving for Uy, Initial residual = 0.0279115, Final residual = 0.000683542, No Iterations 4
smoothSolver:  Solving for Uz, Initial residual = 0.0210226, Final residual = 0.000510907, No Iterations 4
GAMG:  Solving for p, Initial residual = 1.69449e-05, Final residual = 1.66414e-07, No Iterations 5
time step continuity errors : sum local = 0.002007, global = 3.45837e-05, cumulative = 0.00600301
smoothSolver:  Solving for nuTilda, Initial residual = 0.00764292, Final residual = 0.000375648, No Iterations 2
bounding nuTilda, min: -0.00632527 max: 0.0993759 average: 0.00959024
ExecutionTime = 233.284 s  ClockTime = 233 s

Time = 68s

smoothSolver:  Solving for Ux, Initial residual = 0.00408306, Final residual = 9.95212e-05, No Iterations 4
smoothSolver:  Solving for Uy, Initial residual = 0.0266695, Final residual = 0.000659784, No Iterations 4
smoothSolver:  Solving for Uz, Initial residual = 0.0197931, Final residual = 0.000489341, No Iterations 4
GAMG:  Solving for p, Initial residual = 1.58892e-05, Final residual = 1.56521e-07, No Iterations 5
time step continuity errors : sum local = 0.00189694, global = 3.76019e-05, cumulative = 0.00604062
smoothSolver:  Solving for nuTilda, Initial residual = 0.00760303, Final residual = 0.000372069, No Iterations 2
bounding nuTilda, min: -0.00607733 max: 0.0997982 average: 0.00963891
ExecutionTime = 236.757 s  ClockTime = 237 s

Time = 69s

smoothSolver:  Solving for Ux, Initial residual = 0.0038553, Final residual = 9.46655e-05, No Iterations 4
smoothSolver:  Solving for Uy, Initial residual = 0.0253358, Final residual = 0.00063692, No Iterations 4
smoothSolver:  Solving for Uz, Initial residual = 0.0186122, Final residual = 0.00046691, No Iterations 4
GAMG:  Solving for p, Initial residual = 1.48868e-05, Final residual = 1.43967e-07, No Iterations 5
time step continuity errors : sum local = 0.00175306, global = 3.10063e-05, cumulative = 0.00607162
smoothSolver:  Solving for nuTilda, Initial residual = 0.00752172, Final residual = 0.000367202, No Iterations 2
bounding nuTilda, min: -0.00608269 max: 0.100171 average: 0.00968671
ExecutionTime = 239.624 s  ClockTime = 240 s

Time = 70s

smoothSolver:  Solving for Ux, Initial residual = 0.00363601, Final residual = 9.04566e-05, No Iterations 4
smoothSolver:  Solving for Uy, Initial residual = 0.0239418, Final residual = 0.000614947, No Iterations 4
smoothSolver:  Solving for Uz, Initial residual = 0.0175165, Final residual = 0.00044174, No Iterations 4
GAMG:  Solving for p, Initial residual = 1.40222e-05, Final residual = 1.30708e-07, No Iterations 5
time step continuity errors : sum local = 0.00159843, global = 1.82438e-05, cumulative = 0.00608987
smoothSolver:  Solving for nuTilda, Initial residual = 0.00740582, Final residual = 0.000360599, No Iterations 2
bounding nuTilda, min: -0.00620339 max: 0.100502 average: 0.00973225
ExecutionTime = 243.15 s  ClockTime = 243 s

Time = 71s

smoothSolver:  Solving for Ux, Initial residual = 0.00345656, Final residual = 8.66187e-05, No Iterations 4
smoothSolver:  Solving for Uy, Initial residual = 0.0226456, Final residual = 0.000592194, No Iterations 4
smoothSolver:  Solving for Uz, Initial residual = 0.016529, Final residual = 0.000415936, No Iterations 4
GAMG:  Solving for p, Initial residual = 1.32245e-05, Final residual = 1.18723e-07, No Iterations 5
time step continuity errors : sum local = 0.00145695, global = -1.67437e-06, cumulative = 0.00608819
smoothSolver:  Solving for nuTilda, Initial residual = 0.00728412, Final residual = 0.000353831, No Iterations 2
bounding nuTilda, min: -0.00626463 max: 0.100801 average: 0.0097762
ExecutionTime = 246.333 s  ClockTime = 246 s

Time = 72s

smoothSolver:  Solving for Ux, Initial residual = 0.00327966, Final residual = 8.25147e-05, No Iterations 4
smoothSolver:  Solving for Uy, Initial residual = 0.0215387, Final residual = 0.000568712, No Iterations 4
smoothSolver:  Solving for Uz, Initial residual = 0.0156394, Final residual = 0.00039101, No Iterations 4
GAMG:  Solving for p, Initial residual = 1.24404e-05, Final residual = 1.0898e-07, No Iterations 5
time step continuity errors : sum local = 0.00134066, global = -1.31594e-05, cumulative = 0.00607503
smoothSolver:  Solving for nuTilda, Initial residual = 0.00714497, Final residual = 0.00034608, No Iterations 2
bounding nuTilda, min: -0.0063104 max: 0.101075 average: 0.00981868
ExecutionTime = 249.16 s  ClockTime = 249 s

Time = 73s

smoothSolver:  Solving for Ux, Initial residual = 0.00309617, Final residual = 7.80275e-05, No Iterations 4
smoothSolver:  Solving for Uy, Initial residual = 0.0205685, Final residual = 0.000544927, No Iterations 4
smoothSolver:  Solving for Uz, Initial residual = 0.0147615, Final residual = 0.000367822, No Iterations 4
GAMG:  Solving for p, Initial residual = 1.17047e-05, Final residual = 1.00441e-07, No Iterations 5
time step continuity errors : sum local = 0.00123884, global = -1.2113e-05, cumulative = 0.00606292
smoothSolver:  Solving for nuTilda, Initial residual = 0.00701884, Final residual = 0.000338752, No Iterations 2
bounding nuTilda, min: -0.00631965 max: 0.101331 average: 0.00985971
ExecutionTime = 252.007 s  ClockTime = 252 s

Time = 74s

smoothSolver:  Solving for Ux, Initial residual = 0.0029089, Final residual = 7.35489e-05, No Iterations 4
smoothSolver:  Solving for Uy, Initial residual = 0.0195701, Final residual = 0.000520279, No Iterations 4
smoothSolver:  Solving for Uz, Initial residual = 0.0138842, Final residual = 0.000345936, No Iterations 4
GAMG:  Solving for p, Initial residual = 1.10089e-05, Final residual = 9.21272e-08, No Iterations 5
time step continuity errors : sum local = 0.00113702, global = -2.28029e-06, cumulative = 0.00606064
smoothSolver:  Solving for nuTilda, Initial residual = 0.00689768, Final residual = 0.000331548, No Iterations 2
bounding nuTilda, min: -0.00630743 max: 0.101572 average: 0.00989839
ExecutionTime = 254.844 s  ClockTime = 255 s

Time = 75s

smoothSolver:  Solving for Ux, Initial residual = 0.00272722, Final residual = 6.92323e-05, No Iterations 4
smoothSolver:  Solving for Uy, Initial residual = 0.0184729, Final residual = 0.000494014, No Iterations 4
smoothSolver:  Solving for Uz, Initial residual = 0.0129713, Final residual = 0.000325513, No Iterations 4
GAMG:  Solving for p, Initial residual = 1.03718e-05, Final residual = 8.67753e-08, No Iterations 5
time step continuity errors : sum local = 0.0010664, global = 1.50884e-05, cumulative = 0.00607573
smoothSolver:  Solving for nuTilda, Initial residual = 0.0067803, Final residual = 0.000324195, No Iterations 2
bounding nuTilda, min: -0.00631906 max: 0.101802 average: 0.00993651
ExecutionTime = 257.983 s  ClockTime = 258 s

Time = 76s

smoothSolver:  Solving for Ux, Initial residual = 0.0025808, Final residual = 6.53342e-05, No Iterations 4
smoothSolver:  Solving for Uy, Initial residual = 0.0173283, Final residual = 0.00046886, No Iterations 4
smoothSolver:  Solving for Uz, Initial residual = 0.0120046, Final residual = 0.000305934, No Iterations 4
GAMG:  Solving for p, Initial residual = 9.74759e-06, Final residual = 8.38357e-08, No Iterations 5
time step continuity errors : sum local = 0.00102748, global = 2.17556e-05, cumulative = 0.00609748
smoothSolver:  Solving for nuTilda, Initial residual = 0.00666839, Final residual = 0.000317053, No Iterations 2
bounding nuTilda, min: -0.00631518 max: 0.102024 average: 0.00997261
ExecutionTime = 261.19 s  ClockTime = 261 s

Time = 77s

smoothSolver:  Solving for Ux, Initial residual = 0.00244663, Final residual = 6.17931e-05, No Iterations 4
smoothSolver:  Solving for Uy, Initial residual = 0.016291, Final residual = 0.000447746, No Iterations 4
smoothSolver:  Solving for Uz, Initial residual = 0.0111259, Final residual = 0.00028894, No Iterations 4
GAMG:  Solving for p, Initial residual = 9.1444e-06, Final residual = 9.99338e-08, No Iterations 4
time step continuity errors : sum local = 0.00122061, global = 2.26575e-05, cumulative = 0.00612014
smoothSolver:  Solving for nuTilda, Initial residual = 0.00655987, Final residual = 0.000310166, No Iterations 2
bounding nuTilda, min: -0.00630214 max: 0.102239 average: 0.0100069
ExecutionTime = 264.666 s  ClockTime = 265 s

Time = 78s

smoothSolver:  Solving for Ux, Initial residual = 0.00230799, Final residual = 5.85906e-05, No Iterations 4
smoothSolver:  Solving for Uy, Initial residual = 0.0154437, Final residual = 0.00042891, No Iterations 4
smoothSolver:  Solving for Uz, Initial residual = 0.0103937, Final residual = 0.000274355, No Iterations 4
GAMG:  Solving for p, Initial residual = 8.53425e-06, Final residual = 9.768e-08, No Iterations 4
time step continuity errors : sum local = 0.00118794, global = 2.39437e-05, cumulative = 0.00614408
smoothSolver:  Solving for nuTilda, Initial residual = 0.00644169, Final residual = 0.000302906, No Iterations 2
bounding nuTilda, min: -0.00631519 max: 0.102452 average: 0.0100406
ExecutionTime = 268.245 s  ClockTime = 268 s

Time = 79s

smoothSolver:  Solving for Ux, Initial residual = 0.00216466, Final residual = 5.5696e-05, No Iterations 4
smoothSolver:  Solving for Uy, Initial residual = 0.0146875, Final residual = 0.000410892, No Iterations 4
smoothSolver:  Solving for Uz, Initial residual = 0.00980836, Final residual = 0.000260885, No Iterations 4
GAMG:  Solving for p, Initial residual = 7.9008e-06, Final residual = 9.44049e-08, No Iterations 4
time step continuity errors : sum local = 0.00114473, global = 2.08891e-05, cumulative = 0.00616497
smoothSolver:  Solving for nuTilda, Initial residual = 0.00632095, Final residual = 0.000295472, No Iterations 2
bounding nuTilda, min: -0.00631419 max: 0.102665 average: 0.0100727
ExecutionTime = 271.08 s  ClockTime = 271 s

Time = 80s

smoothSolver:  Solving for Ux, Initial residual = 0.00202521, Final residual = 5.30836e-05, No Iterations 4
smoothSolver:  Solving for Uy, Initial residual = 0.0139473, Final residual = 0.000393883, No Iterations 4
smoothSolver:  Solving for Uz, Initial residual = 0.00933, Final residual = 0.000248123, No Iterations 4
GAMG:  Solving for p, Initial residual = 7.30791e-06, Final residual = 8.92676e-08, No Iterations 4
time step continuity errors : sum local = 0.00107993, global = 1.42616e-05, cumulative = 0.00617924
smoothSolver:  Solving for nuTilda, Initial residual = 0.00619063, Final residual = 0.000287765, No Iterations 2
bounding nuTilda, min: -0.00630251 max: 0.102879 average: 0.0101028
ExecutionTime = 273.692 s  ClockTime = 274 s

Time = 81s

smoothSolver:  Solving for Ux, Initial residual = 0.00191502, Final residual = 5.06404e-05, No Iterations 4
smoothSolver:  Solving for Uy, Initial residual = 0.0131883, Final residual = 0.000379066, No Iterations 4
smoothSolver:  Solving for Uz, Initial residual = 0.00885821, Final residual = 0.000237383, No Iterations 4
GAMG:  Solving for p, Initial residual = 6.75104e-06, Final residual = 8.34494e-08, No Iterations 4
time step continuity errors : sum local = 0.00100746, global = 8.15235e-06, cumulative = 0.00618739
smoothSolver:  Solving for nuTilda, Initial residual = 0.00605842, Final residual = 0.000279832, No Iterations 2
bounding nuTilda, min: -0.00631636 max: 0.103097 average: 0.010133
ExecutionTime = 276.364 s  ClockTime = 276 s

Time = 82s

smoothSolver:  Solving for Ux, Initial residual = 0.00182712, Final residual = 4.83592e-05, No Iterations 4
smoothSolver:  Solving for Uy, Initial residual = 0.0124787, Final residual = 0.000365689, No Iterations 4
smoothSolver:  Solving for Uz, Initial residual = 0.00838107, Final residual = 0.000228582, No Iterations 4
GAMG:  Solving for p, Initial residual = 6.27121e-06, Final residual = 7.89282e-08, No Iterations 4
time step continuity errors : sum local = 0.000951008, global = 5.77715e-06, cumulative = 0.00619316
smoothSolver:  Solving for nuTilda, Initial residual = 0.00592203, Final residual = 0.000271634, No Iterations 2
bounding nuTilda, min: -0.0063148 max: 0.103318 average: 0.0101615
ExecutionTime = 278.966 s  ClockTime = 279 s

Time = 83s

smoothSolver:  Solving for Ux, Initial residual = 0.00174259, Final residual = 4.62266e-05, No Iterations 4
smoothSolver:  Solving for Uy, Initial residual = 0.0119145, Final residual = 0.00035322, No Iterations 4
smoothSolver:  Solving for Uz, Initial residual = 0.00794619, Final residual = 0.000220319, No Iterations 4
GAMG:  Solving for p, Initial residual = 5.84446e-06, Final residual = 7.61969e-08, No Iterations 4
time step continuity errors : sum local = 0.000916394, global = 9.07055e-06, cumulative = 0.00620224
smoothSolver:  Solving for nuTilda, Initial residual = 0.00578468, Final residual = 0.000263493, No Iterations 2
bounding nuTilda, min: -0.00630307 max: 0.103542 average: 0.0101889
ExecutionTime = 281.62 s  ClockTime = 282 s

Time = 84s

smoothSolver:  Solving for Ux, Initial residual = 0.00165765, Final residual = 4.42831e-05, No Iterations 4
smoothSolver:  Solving for Uy, Initial residual = 0.0115056, Final residual = 0.000339794, No Iterations 4
smoothSolver:  Solving for Uz, Initial residual = 0.00758784, Final residual = 0.000211339, No Iterations 4
GAMG:  Solving for p, Initial residual = 5.45224e-06, Final residual = 7.48331e-08, No Iterations 4
time step continuity errors : sum local = 0.00089837, global = 1.63531e-05, cumulative = 0.00621859
smoothSolver:  Solving for nuTilda, Initial residual = 0.00563933, Final residual = 0.000255168, No Iterations 2
bounding nuTilda, min: -0.0063163 max: 0.103769 average: 0.0102164
ExecutionTime = 284.271 s  ClockTime = 284 s

Time = 85s

smoothSolver:  Solving for Ux, Initial residual = 0.00157046, Final residual = 4.25791e-05, No Iterations 4
smoothSolver:  Solving for Uy, Initial residual = 0.011138, Final residual = 0.000325783, No Iterations 4
smoothSolver:  Solving for Uz, Initial residual = 0.00730617, Final residual = 0.000202029, No Iterations 4
GAMG:  Solving for p, Initial residual = 5.10068e-06, Final residual = 9.86803e-08, No Iterations 3
time step continuity errors : sum local = 0.00118248, global = 8.44151e-06, cumulative = 0.00622703
smoothSolver:  Solving for nuTilda, Initial residual = 0.00549735, Final residual = 0.000247051, No Iterations 2
bounding nuTilda, min: -0.00631497 max: 0.103995 average: 0.0102433
ExecutionTime = 286.809 s  ClockTime = 287 s

Time = 86s

smoothSolver:  Solving for Ux, Initial residual = 0.00149012, Final residual = 4.09594e-05, No Iterations 4
smoothSolver:  Solving for Uy, Initial residual = 0.0107053, Final residual = 0.000311333, No Iterations 4
smoothSolver:  Solving for Uz, Initial residual = 0.00705446, Final residual = 0.000192421, No Iterations 4
GAMG:  Solving for p, Initial residual = 4.77867e-06, Final residual = 7.6788e-08, No Iterations 4
time step continuity errors : sum local = 0.000918671, global = 1.60664e-05, cumulative = 0.0062431
smoothSolver:  Solving for nuTilda, Initial residual = 0.00535166, Final residual = 0.000239097, No Iterations 2
bounding nuTilda, min: -0.00630286 max: 0.10422 average: 0.0102691
ExecutionTime = 289.419 s  ClockTime = 289 s

Time = 87s

smoothSolver:  Solving for Ux, Initial residual = 0.00142479, Final residual = 3.92827e-05, No Iterations 4
smoothSolver:  Solving for Uy, Initial residual = 0.0102081, Final residual = 0.000297904, No Iterations 4
smoothSolver:  Solving for Uz, Initial residual = 0.00680873, Final residual = 0.000184299, No Iterations 4
GAMG:  Solving for p, Initial residual = 4.47854e-06, Final residual = 9.31142e-08, No Iterations 3
time step continuity errors : sum local = 0.0011118, global = 3.90211e-06, cumulative = 0.006247
smoothSolver:  Solving for nuTilda, Initial residual = 0.00521002, Final residual = 0.000231457, No Iterations 2
bounding nuTilda, min: -0.00631647 max: 0.104442 average: 0.0102961
ExecutionTime = 291.973 s  ClockTime = 292 s

Time = 88s

smoothSolver:  Solving for Ux, Initial residual = 0.00136742, Final residual = 3.77047e-05, No Iterations 4
smoothSolver:  Solving for Uy, Initial residual = 0.00966067, Final residual = 0.000283828, No Iterations 4
smoothSolver:  Solving for Uz, Initial residual = 0.00648431, Final residual = 0.000176062, No Iterations 4
GAMG:  Solving for p, Initial residual = 4.20202e-06, Final residual = 9.18882e-08, No Iterations 3
time step continuity errors : sum local = 0.00109567, global = -3.52915e-06, cumulative = 0.00624347
smoothSolver:  Solving for nuTilda, Initial residual = 0.00506773, Final residual = 0.000224055, No Iterations 2
bounding nuTilda, min: -0.00631481 max: 0.10466 average: 0.0103226
ExecutionTime = 294.469 s  ClockTime = 294 s

Time = 89s

smoothSolver:  Solving for Ux, Initial residual = 0.00131054, Final residual = 3.61829e-05, No Iterations 4
smoothSolver:  Solving for Uy, Initial residual = 0.00916621, Final residual = 0.000269767, No Iterations 4
smoothSolver:  Solving for Uz, Initial residual = 0.00613971, Final residual = 0.000168345, No Iterations 4
GAMG:  Solving for p, Initial residual = 3.94318e-06, Final residual = 9.17713e-08, No Iterations 3
time step continuity errors : sum local = 0.00109312, global = -9.9637e-06, cumulative = 0.00623351
smoothSolver:  Solving for nuTilda, Initial residual = 0.00493299, Final residual = 0.000217443, No Iterations 2
bounding nuTilda, min: -0.00630306 max: 0.104873 average: 0.010349
ExecutionTime = 297.074 s  ClockTime = 297 s

Time = 90s

smoothSolver:  Solving for Ux, Initial residual = 0.0012526, Final residual = 3.47395e-05, No Iterations 4
smoothSolver:  Solving for Uy, Initial residual = 0.00877696, Final residual = 0.000256282, No Iterations 4
smoothSolver:  Solving for Uz, Initial residual = 0.00582498, Final residual = 0.000161167, No Iterations 4
GAMG:  Solving for p, Initial residual = 3.69523e-06, Final residual = 9.16808e-08, No Iterations 3
time step continuity errors : sum local = 0.00109094, global = -1.23194e-05, cumulative = 0.00622119
smoothSolver:  Solving for nuTilda, Initial residual = 0.00480182, Final residual = 0.000211268, No Iterations 2
bounding nuTilda, min: -0.00631631 max: 0.10508 average: 0.0103765
ExecutionTime = 299.801 s  ClockTime = 300 s

Time = 91s

smoothSolver:  Solving for Ux, Initial residual = 0.00119282, Final residual = 3.33073e-05, No Iterations 4
smoothSolver:  Solving for Uy, Initial residual = 0.00845147, Final residual = 0.000243162, No Iterations 4
smoothSolver:  Solving for Uz, Initial residual = 0.0055726, Final residual = 0.000154295, No Iterations 4
GAMG:  Solving for p, Initial residual = 3.47334e-06, Final residual = 9.04245e-08, No Iterations 3
time step continuity errors : sum local = 0.00107492, global = -9.96013e-06, cumulative = 0.00621123
smoothSolver:  Solving for nuTilda, Initial residual = 0.00468177, Final residual = 0.000205638, No Iterations 2
bounding nuTilda, min: -0.00631499 max: 0.105281 average: 0.0104043
ExecutionTime = 303.044 s  ClockTime = 303 s

Time = 92s

smoothSolver:  Solving for Ux, Initial residual = 0.00113231, Final residual = 3.187e-05, No Iterations 4
smoothSolver:  Solving for Uy, Initial residual = 0.00810675, Final residual = 0.000230324, No Iterations 4
smoothSolver:  Solving for Uz, Initial residual = 0.00537391, Final residual = 0.000147262, No Iterations 4
GAMG:  Solving for p, Initial residual = 3.26584e-06, Final residual = 8.7838e-08, No Iterations 3
time step continuity errors : sum local = 0.00104314, global = -3.77599e-06, cumulative = 0.00620745
smoothSolver:  Solving for nuTilda, Initial residual = 0.00456491, Final residual = 0.000200466, No Iterations 2
bounding nuTilda, min: -0.00630288 max: 0.105475 average: 0.0104316
ExecutionTime = 306.179 s  ClockTime = 306 s

Time = 93s

smoothSolver:  Solving for Ux, Initial residual = 0.0010744, Final residual = 3.04924e-05, No Iterations 4
smoothSolver:  Solving for Uy, Initial residual = 0.00771255, Final residual = 0.000218099, No Iterations 4
smoothSolver:  Solving for Uz, Initial residual = 0.00517886, Final residual = 0.000139908, No Iterations 4
GAMG:  Solving for p, Initial residual = 3.07997e-06, Final residual = 8.38617e-08, No Iterations 3
time step continuity errors : sum local = 0.000994892, global = 3.65223e-06, cumulative = 0.0062111
smoothSolver:  Solving for nuTilda, Initial residual = 0.00445721, Final residual = 0.000195664, No Iterations 2
bounding nuTilda, min: -0.00631649 max: 0.105662 average: 0.0104606
ExecutionTime = 309.118 s  ClockTime = 309 s

Time = 94s

smoothSolver:  Solving for Ux, Initial residual = 0.0010242, Final residual = 2.92141e-05, No Iterations 4
smoothSolver:  Solving for Uy, Initial residual = 0.00728145, Final residual = 0.00020682, No Iterations 4
smoothSolver:  Solving for Uz, Initial residual = 0.00494804, Final residual = 0.000132706, No Iterations 4
GAMG:  Solving for p, Initial residual = 2.91791e-06, Final residual = 7.88192e-08, No Iterations 3
time step continuity errors : sum local = 0.000934064, global = 8.85335e-06, cumulative = 0.00621996
smoothSolver:  Solving for nuTilda, Initial residual = 0.00435267, Final residual = 0.000190978, No Iterations 2
bounding nuTilda, min: -0.00631482 max: 0.105842 average: 0.0104893
ExecutionTime = 312.347 s  ClockTime = 312 s

Time = 95s

smoothSolver:  Solving for Ux, Initial residual = 0.000981447, Final residual = 2.80514e-05, No Iterations 4
smoothSolver:  Solving for Uy, Initial residual = 0.00685144, Final residual = 0.000196289, No Iterations 4
smoothSolver:  Solving for Uz, Initial residual = 0.0046678, Final residual = 0.000126042, No Iterations 4
GAMG:  Solving for p, Initial residual = 2.77095e-06, Final residual = 7.31103e-08, No Iterations 3
time step continuity errors : sum local = 0.000865448, global = 9.8654e-06, cumulative = 0.00622982
smoothSolver:  Solving for nuTilda, Initial residual = 0.00425333, Final residual = 0.000186741, No Iterations 2
bounding nuTilda, min: -0.00630306 max: 0.106014 average: 0.0105179
ExecutionTime = 315.714 s  ClockTime = 316 s

Time = 96s

smoothSolver:  Solving for Ux, Initial residual = 0.000941164, Final residual = 2.69572e-05, No Iterations 4
smoothSolver:  Solving for Uy, Initial residual = 0.00647091, Final residual = 0.000186395, No Iterations 4
smoothSolver:  Solving for Uz, Initial residual = 0.00436879, Final residual = 0.000120146, No Iterations 4
GAMG:  Solving for p, Initial residual = 2.63552e-06, Final residual = 6.85652e-08, No Iterations 3
time step continuity errors : sum local = 0.000810751, global = 7.40011e-06, cumulative = 0.00623722
smoothSolver:  Solving for nuTilda, Initial residual = 0.00415583, Final residual = 0.000182582, No Iterations 2
bounding nuTilda, min: -0.0063163 max: 0.10618 average: 0.0105476
ExecutionTime = 318.832 s  ClockTime = 319 s

Time = 97s

smoothSolver:  Solving for Ux, Initial residual = 0.00090138, Final residual = 2.59173e-05, No Iterations 4
smoothSolver:  Solving for Uy, Initial residual = 0.00617317, Final residual = 0.000177253, No Iterations 4
smoothSolver:  Solving for Uz, Initial residual = 0.00409519, Final residual = 0.000114918, No Iterations 4
GAMG:  Solving for p, Initial residual = 2.50092e-06, Final residual = 6.54701e-08, No Iterations 3
time step continuity errors : sum local = 0.0007733, global = 2.51174e-06, cumulative = 0.00623973
smoothSolver:  Solving for nuTilda, Initial residual = 0.00406552, Final residual = 0.00017853, No Iterations 2
bounding nuTilda, min: -0.00631498 max: 0.106338 average: 0.0105772
ExecutionTime = 322.494 s  ClockTime = 322 s

Time = 98s

smoothSolver:  Solving for Ux, Initial residual = 0.000862222, Final residual = 2.4922e-05, No Iterations 4
smoothSolver:  Solving for Uy, Initial residual = 0.00592292, Final residual = 0.000168859, No Iterations 4
smoothSolver:  Solving for Uz, Initial residual = 0.00388581, Final residual = 0.000110085, No Iterations 4
GAMG:  Solving for p, Initial residual = 2.37908e-06, Final residual = 6.31101e-08, No Iterations 3
time step continuity errors : sum local = 0.000744594, global = -3.86431e-06, cumulative = 0.00623587
smoothSolver:  Solving for nuTilda, Initial residual = 0.00397436, Final residual = 0.000174588, No Iterations 2
bounding nuTilda, min: -0.00630288 max: 0.10649 average: 0.0106062
ExecutionTime = 325.324 s  ClockTime = 325 s

Time = 99s

smoothSolver:  Solving for Ux, Initial residual = 0.000824519, Final residual = 2.39808e-05, No Iterations 4
smoothSolver:  Solving for Uy, Initial residual = 0.00566974, Final residual = 0.000161477, No Iterations 4
smoothSolver:  Solving for Uz, Initial residual = 0.00374104, Final residual = 0.000105413, No Iterations 4
GAMG:  Solving for p, Initial residual = 2.27289e-06, Final residual = 6.12016e-08, No Iterations 3
time step continuity errors : sum local = 0.000721264, global = -1.02075e-05, cumulative = 0.00622566
smoothSolver:  Solving for nuTilda, Initial residual = 0.00388814, Final residual = 0.00017072, No Iterations 2
bounding nuTilda, min: -0.00631648 max: 0.106636 average: 0.0106365
ExecutionTime = 328.07 s  ClockTime = 328 s

Time = 100s

smoothSolver:  Solving for Ux, Initial residual = 0.000789744, Final residual = 2.30998e-05, No Iterations 4
smoothSolver:  Solving for Uy, Initial residual = 0.00540644, Final residual = 0.00015495, No Iterations 4
smoothSolver:  Solving for Uz, Initial residual = 0.00361742, Final residual = 0.000100973, No Iterations 4
GAMG:  Solving for p, Initial residual = 2.17852e-06, Final residual = 9.83895e-08, No Iterations 2
time step continuity errors : sum local = 0.00115819, global = -1.78647e-05, cumulative = 0.0062078
smoothSolver:  Solving for nuTilda, Initial residual = 0.0038026, Final residual = 0.000166808, No Iterations 2
bounding nuTilda, min: -0.00631481 max: 0.106777 average: 0.0106663
ExecutionTime = 330.771 s  ClockTime = 331 s

Time = 101s

smoothSolver:  Solving for Ux, Initial residual = 0.00075935, Final residual = 2.22791e-05, No Iterations 4
smoothSolver:  Solving for Uy, Initial residual = 0.00512481, Final residual = 0.000148512, No Iterations 4
smoothSolver:  Solving for Uz, Initial residual = 0.00345481, Final residual = 9.63588e-05, No Iterations 4
GAMG:  Solving for p, Initial residual = 2.09659e-06, Final residual = 9.80944e-08, No Iterations 2
time step continuity errors : sum local = 0.00115349, global = -3.03425e-05, cumulative = 0.00617745
smoothSolver:  Solving for nuTilda, Initial residual = 0.00372004, Final residual = 0.000163141, No Iterations 2
bounding nuTilda, min: -0.00630303 max: 0.106914 average: 0.0106956
ExecutionTime = 333.369 s  ClockTime = 333 s

Time = 102s

smoothSolver:  Solving for Ux, Initial residual = 0.000732526, Final residual = 2.15021e-05, No Iterations 4
smoothSolver:  Solving for Uy, Initial residual = 0.0048821, Final residual = 0.000143206, No Iterations 4
smoothSolver:  Solving for Uz, Initial residual = 0.00331936, Final residual = 9.25657e-05, No Iterations 4
GAMG:  Solving for p, Initial residual = 2.00905e-06, Final residual = 9.74121e-08, No Iterations 2
time step continuity errors : sum local = 0.00114412, global = -3.44925e-05, cumulative = 0.00614296
smoothSolver:  Solving for nuTilda, Initial residual = 0.00363735, Final residual = 0.000159401, No Iterations 2
bounding nuTilda, min: -0.00631632 max: 0.107046 average: 0.0107257
ExecutionTime = 335.862 s  ClockTime = 336 s

Time = 103s

smoothSolver:  Solving for Ux, Initial residual = 0.000710063, Final residual = 2.0801e-05, No Iterations 4
smoothSolver:  Solving for Uy, Initial residual = 0.00469181, Final residual = 0.000138893, No Iterations 4
smoothSolver:  Solving for Uz, Initial residual = 0.00320418, Final residual = 8.96836e-05, No Iterations 4
GAMG:  Solving for p, Initial residual = 1.92984e-06, Final residual = 9.54397e-08, No Iterations 2
time step continuity errors : sum local = 0.00111966, global = -3.32718e-05, cumulative = 0.00610969
smoothSolver:  Solving for nuTilda, Initial residual = 0.003558, Final residual = 0.000155676, No Iterations 2
[...]

smoothSolver:  Solving for Ux, Initial residual = 9.96722e-06, Final residual = 3.64654e-07, No Iterations 4
smoothSolver:  Solving for Uy, Initial residual = 2.40895e-05, Final residual = 1.15097e-06, No Iterations 4
smoothSolver:  Solving for Uz, Initial residual = 1.80776e-05, Final residual = 8.34554e-07, No Iterations 4
GAMG:  Solving for p, Initial residual = 4.0426e-07, Final residual = 6.49611e-08, No Iterations 1
time step continuity errors : sum local = 0.000104629, global = -6.57003e-05, cumulative = -0.11333
smoothSolver:  Solving for nuTilda, Initial residual = 0.00012509, Final residual = 9.64573e-06, No Iterations 2
bounding nuTilda, min: -0.0063165 max: 0.147593 average: 0.0139715
ExecutionTime = 2336.16 s  ClockTime = 2338 s

Time = 976s

smoothSolver:  Solving for Ux, Initial residual = 9.94784e-06, Final residual = 3.6341e-07, No Iterations 4
smoothSolver:  Solving for Uy, Initial residual = 2.43174e-05, Final residual = 1.16112e-06, No Iterations 4
smoothSolver:  Solving for Uz, Initial residual = 1.81216e-05, Final residual = 8.3742e-07, No Iterations 4
GAMG:  Solving for p, Initial residual = 3.99909e-07, Final residual = 6.48329e-08, No Iterations 1
time step continuity errors : sum local = 0.000104261, global = -6.49968e-05, cumulative = -0.113395
smoothSolver:  Solving for nuTilda, Initial residual = 0.000124694, Final residual = 9.58395e-06, No Iterations 2
bounding nuTilda, min: -0.00631485 max: 0.147626 average: 0.0139731
ExecutionTime = 2338.23 s  ClockTime = 2340 s

Time = 977s

smoothSolver:  Solving for Ux, Initial residual = 9.92426e-06, Final residual = 3.62982e-07, No Iterations 4
smoothSolver:  Solving for Uy, Initial residual = 2.4302e-05, Final residual = 1.16292e-06, No Iterations 4
smoothSolver:  Solving for Uz, Initial residual = 1.81269e-05, Final residual = 8.38597e-07, No Iterations 4
GAMG:  Solving for p, Initial residual = 4.03886e-07, Final residual = 6.49601e-08, No Iterations 1
time step continuity errors : sum local = 0.000104309, global = -6.48837e-05, cumulative = -0.11346
smoothSolver:  Solving for nuTilda, Initial residual = 0.000124288, Final residual = 9.58366e-06, No Iterations 2
bounding nuTilda, min: -0.00630303 max: 0.147659 average: 0.0139743
ExecutionTime = 2340.57 s  ClockTime = 2342 s

Time = 978s

smoothSolver:  Solving for Ux, Initial residual = 9.88165e-06, Final residual = 3.61524e-07, No Iterations 4
smoothSolver:  Solving for Uy, Initial residual = 2.40016e-05, Final residual = 1.14593e-06, No Iterations 4
smoothSolver:  Solving for Uz, Initial residual = 1.79837e-05, Final residual = 8.28806e-07, No Iterations 4
GAMG:  Solving for p, Initial residual = 3.99765e-07, Final residual = 6.51487e-08, No Iterations 1
time step continuity errors : sum local = 0.000104455, global = -6.6249e-05, cumulative = -0.113526
smoothSolver:  Solving for nuTilda, Initial residual = 0.000123933, Final residual = 9.55417e-06, No Iterations 2
bounding nuTilda, min: -0.00631629 max: 0.147692 average: 0.0139764
ExecutionTime = 2342.83 s  ClockTime = 2344 s

Time = 979s

smoothSolver:  Solving for Ux, Initial residual = 9.86322e-06, Final residual = 3.60439e-07, No Iterations 4
smoothSolver:  Solving for Uy, Initial residual = 2.41843e-05, Final residual = 1.15701e-06, No Iterations 4
smoothSolver:  Solving for Uz, Initial residual = 1.80652e-05, Final residual = 8.33721e-07, No Iterations 4
GAMG:  Solving for p, Initial residual = 3.99626e-07, Final residual = 6.50711e-08, No Iterations 1
time step continuity errors : sum local = 0.000104171, global = -6.51488e-05, cumulative = -0.113591
smoothSolver:  Solving for nuTilda, Initial residual = 0.000123444, Final residual = 9.50145e-06, No Iterations 2
bounding nuTilda, min: -0.00631505 max: 0.147724 average: 0.0139782
ExecutionTime = 2344.91 s  ClockTime = 2346 s

Time = 980s

smoothSolver:  Solving for Ux, Initial residual = 9.82821e-06, Final residual = 3.5998e-07, No Iterations 4
smoothSolver:  Solving for Uy, Initial residual = 2.41733e-05, Final residual = 1.16264e-06, No Iterations 4
smoothSolver:  Solving for Uz, Initial residual = 1.79853e-05, Final residual = 8.32847e-07, No Iterations 4
GAMG:  Solving for p, Initial residual = 3.99219e-07, Final residual = 6.49258e-08, No Iterations 1
time step continuity errors : sum local = 0.000103787, global = -6.53078e-05, cumulative = -0.113656
smoothSolver:  Solving for nuTilda, Initial residual = 0.000123154, Final residual = 9.49258e-06, No Iterations 2
bounding nuTilda, min: -0.00630283 max: 0.147757 average: 0.0139792
ExecutionTime = 2346.96 s  ClockTime = 2348 s

Time = 981s

smoothSolver:  Solving for Ux, Initial residual = 9.80537e-06, Final residual = 3.58961e-07, No Iterations 4
smoothSolver:  Solving for Uy, Initial residual = 2.39708e-05, Final residual = 1.14662e-06, No Iterations 4
smoothSolver:  Solving for Uz, Initial residual = 1.79281e-05, Final residual = 8.24576e-07, No Iterations 4
GAMG:  Solving for p, Initial residual = 4.01304e-07, Final residual = 6.49083e-08, No Iterations 1
time step continuity errors : sum local = 0.000103606, global = -6.56585e-05, cumulative = -0.113722
smoothSolver:  Solving for nuTilda, Initial residual = 0.000122697, Final residual = 9.47242e-06, No Iterations 2
bounding nuTilda, min: -0.00631649 max: 0.147789 average: 0.0139814
ExecutionTime = 2348.97 s  ClockTime = 2350 s

Time = 982s

smoothSolver:  Solving for Ux, Initial residual = 9.79054e-06, Final residual = 3.57868e-07, No Iterations 4
smoothSolver:  Solving for Uy, Initial residual = 2.4196e-05, Final residual = 1.15295e-06, No Iterations 4
smoothSolver:  Solving for Uz, Initial residual = 1.79358e-05, Final residual = 8.25261e-07, No Iterations 4
GAMG:  Solving for p, Initial residual = 3.95019e-07, Final residual = 6.42225e-08, No Iterations 1
time step continuity errors : sum local = 0.00010236, global = -6.43956e-05, cumulative = -0.113787
smoothSolver:  Solving for nuTilda, Initial residual = 0.000122307, Final residual = 9.41059e-06, No Iterations 2
bounding nuTilda, min: -0.00631485 max: 0.147821 average: 0.013983
ExecutionTime = 2351.06 s  ClockTime = 2352 s

Time = 983s

smoothSolver:  Solving for Ux, Initial residual = 9.75421e-06, Final residual = 3.57296e-07, No Iterations 4
smoothSolver:  Solving for Uy, Initial residual = 2.40344e-05, Final residual = 1.15323e-06, No Iterations 4
smoothSolver:  Solving for Uz, Initial residual = 1.78501e-05, Final residual = 8.24617e-07, No Iterations 4
GAMG:  Solving for p, Initial residual = 3.97376e-07, Final residual = 6.39771e-08, No Iterations 1
time step continuity errors : sum local = 0.000101823, global = -6.38574e-05, cumulative = -0.11385
smoothSolver:  Solving for nuTilda, Initial residual = 0.000121908, Final residual = 9.41083e-06, No Iterations 2
bounding nuTilda, min: -0.00630303 max: 0.147854 average: 0.0139842
ExecutionTime = 2353.2 s  ClockTime = 2355 s

Time = 984s

smoothSolver:  Solving for Ux, Initial residual = 9.71361e-06, Final residual = 3.56049e-07, No Iterations 4
smoothSolver:  Solving for Uy, Initial residual = 2.38009e-05, Final residual = 1.13891e-06, No Iterations 4
smoothSolver:  Solving for Uz, Initial residual = 1.76893e-05, Final residual = 8.14269e-07, No Iterations 4
GAMG:  Solving for p, Initial residual = 3.93246e-07, Final residual = 6.29725e-08, No Iterations 1
time step continuity errors : sum local = 0.000100081, global = -6.32128e-05, cumulative = -0.113914
smoothSolver:  Solving for nuTilda, Initial residual = 0.000121568, Final residual = 9.38186e-06, No Iterations 2
bounding nuTilda, min: -0.00631629 max: 0.147886 average: 0.0139863
ExecutionTime = 2355.23 s  ClockTime = 2357 s

Time = 985s

smoothSolver:  Solving for Ux, Initial residual = 9.71003e-06, Final residual = 3.55137e-07, No Iterations 4
smoothSolver:  Solving for Uy, Initial residual = 2.40919e-05, Final residual = 1.14433e-06, No Iterations 4
smoothSolver:  Solving for Uz, Initial residual = 1.78205e-05, Final residual = 8.17712e-07, No Iterations 4
GAMG:  Solving for p, Initial residual = 3.9309e-07, Final residual = 6.23009e-08, No Iterations 1
time step continuity errors : sum local = 9.88728e-05, global = -6.08531e-05, cumulative = -0.113974
smoothSolver:  Solving for nuTilda, Initial residual = 0.000121083, Final residual = 9.32899e-06, No Iterations 2
bounding nuTilda, min: -0.00631505 max: 0.147918 average: 0.013988
ExecutionTime = 2357.44 s  ClockTime = 2359 s

Time = 986s

smoothSolver:  Solving for Ux, Initial residual = 9.67772e-06, Final residual = 3.54601e-07, No Iterations 4
smoothSolver:  Solving for Uy, Initial residual = 2.39928e-05, Final residual = 1.14279e-06, No Iterations 4
smoothSolver:  Solving for Uz, Initial residual = 1.77008e-05, Final residual = 8.16371e-07, No Iterations 4
GAMG:  Solving for p, Initial residual = 3.89717e-07, Final residual = 6.18002e-08, No Iterations 1
time step continuity errors : sum local = 9.79436e-05, global = -6.01817e-05, cumulative = -0.114035
smoothSolver:  Solving for nuTilda, Initial residual = 0.000120783, Final residual = 9.3203e-06, No Iterations 2
bounding nuTilda, min: -0.00630284 max: 0.147949 average: 0.013989
ExecutionTime = 2359.55 s  ClockTime = 2361 s

Time = 987s

smoothSolver:  Solving for Ux, Initial residual = 9.63297e-06, Final residual = 3.53108e-07, No Iterations 4
smoothSolver:  Solving for Uy, Initial residual = 2.36282e-05, Final residual = 1.12528e-06, No Iterations 4
smoothSolver:  Solving for Uz, Initial residual = 1.75386e-05, Final residual = 8.06971e-07, No Iterations 4
GAMG:  Solving for p, Initial residual = 3.90937e-07, Final residual = 6.12749e-08, No Iterations 1
time step continuity errors : sum local = 9.6975e-05, global = -5.91209e-05, cumulative = -0.114094
smoothSolver:  Solving for nuTilda, Initial residual = 0.000120343, Final residual = 9.30044e-06, No Iterations 2
bounding nuTilda, min: -0.0063165 max: 0.147981 average: 0.0139912
ExecutionTime = 2361.56 s  ClockTime = 2363 s

Time = 988s

smoothSolver:  Solving for Ux, Initial residual = 9.61702e-06, Final residual = 3.52083e-07, No Iterations 4
smoothSolver:  Solving for Uy, Initial residual = 2.38846e-05, Final residual = 1.13347e-06, No Iterations 4
smoothSolver:  Solving for Uz, Initial residual = 1.75919e-05, Final residual = 8.1057e-07, No Iterations 4
GAMG:  Solving for p, Initial residual = 3.86047e-07, Final residual = 6.06548e-08, No Iterations 1
time step continuity errors : sum local = 9.58602e-05, global = -5.70165e-05, cumulative = -0.114151
smoothSolver:  Solving for nuTilda, Initial residual = 0.000119964, Final residual = 9.23937e-06, No Iterations 2
bounding nuTilda, min: -0.00631485 max: 0.148013 average: 0.0139928
ExecutionTime = 2363.57 s  ClockTime = 2365 s

Time = 989s

smoothSolver:  Solving for Ux, Initial residual = 9.59713e-06, Final residual = 3.51745e-07, No Iterations 4
smoothSolver:  Solving for Uy, Initial residual = 2.38799e-05, Final residual = 1.13322e-06, No Iterations 4
smoothSolver:  Solving for Uz, Initial residual = 1.7616e-05, Final residual = 8.13145e-07, No Iterations 4
GAMG:  Solving for p, Initial residual = 3.89808e-07, Final residual = 6.04102e-08, No Iterations 1
time step continuity errors : sum local = 9.5345e-05, global = -5.5649e-05, cumulative = -0.114206
smoothSolver:  Solving for nuTilda, Initial residual = 0.000119566, Final residual = 9.23957e-06, No Iterations 2
bounding nuTilda, min: -0.00630303 max: 0.148044 average: 0.0139939
ExecutionTime = 2365.56 s  ClockTime = 2367 s

Time = 990s

smoothSolver:  Solving for Ux, Initial residual = 9.55499e-06, Final residual = 3.50438e-07, No Iterations 4
smoothSolver:  Solving for Uy, Initial residual = 2.35979e-05, Final residual = 1.11664e-06, No Iterations 4
smoothSolver:  Solving for Uz, Initial residual = 1.74588e-05, Final residual = 8.02806e-07, No Iterations 4
GAMG:  Solving for p, Initial residual = 3.85173e-07, Final residual = 6.03854e-08, No Iterations 1
time step continuity errors : sum local = 9.51767e-05, global = -5.61748e-05, cumulative = -0.114263
smoothSolver:  Solving for nuTilda, Initial residual = 0.000119232, Final residual = 9.21059e-06, No Iterations 2
bounding nuTilda, min: -0.00631629 max: 0.148076 average: 0.0139959
ExecutionTime = 2367.6 s  ClockTime = 2369 s

Time = 991s

smoothSolver:  Solving for Ux, Initial residual = 9.53907e-06, Final residual = 3.4952e-07, No Iterations 4
smoothSolver:  Solving for Uy, Initial residual = 2.38144e-05, Final residual = 1.12942e-06, No Iterations 4
smoothSolver:  Solving for Uz, Initial residual = 1.75387e-05, Final residual = 8.08982e-07, No Iterations 4
GAMG:  Solving for p, Initial residual = 3.85838e-07, Final residual = 6.06136e-08, No Iterations 1
time step continuity errors : sum local = 9.54034e-05, global = -5.50509e-05, cumulative = -0.114318
smoothSolver:  Solving for nuTilda, Initial residual = 0.000118745, Final residual = 9.15854e-06, No Iterations 2
bounding nuTilda, min: -0.00631505 max: 0.148107 average: 0.0139976
ExecutionTime = 2369.64 s  ClockTime = 2371 s

Time = 992s

smoothSolver:  Solving for Ux, Initial residual = 9.50562e-06, Final residual = 3.49363e-07, No Iterations 4
smoothSolver:  Solving for Uy, Initial residual = 2.37892e-05, Final residual = 1.13533e-06, No Iterations 4
smoothSolver:  Solving for Uz, Initial residual = 1.74574e-05, Final residual = 8.08895e-07, No Iterations 4
GAMG:  Solving for p, Initial residual = 3.85689e-07, Final residual = 6.10202e-08, No Iterations 1
time step continuity errors : sum local = 9.59144e-05, global = -5.58511e-05, cumulative = -0.114374
smoothSolver:  Solving for nuTilda, Initial residual = 0.000118467, Final residual = 9.15037e-06, No Iterations 2
bounding nuTilda, min: -0.00630283 max: 0.148138 average: 0.0139985
ExecutionTime = 2371.62 s  ClockTime = 2373 s

Time = 993s

smoothSolver:  Solving for Ux, Initial residual = 9.48433e-06, Final residual = 3.48674e-07, No Iterations 4
smoothSolver:  Solving for Uy, Initial residual = 2.36299e-05, Final residual = 1.12162e-06, No Iterations 4
smoothSolver:  Solving for Uz, Initial residual = 1.74432e-05, Final residual = 8.03233e-07, No Iterations 4
GAMG:  Solving for p, Initial residual = 3.89027e-07, Final residual = 6.15087e-08, No Iterations 1
time step continuity errors : sum local = 9.65499e-05, global = -5.69082e-05, cumulative = -0.11443
smoothSolver:  Solving for nuTilda, Initial residual = 0.000118028, Final residual = 9.13095e-06, No Iterations 2
bounding nuTilda, min: -0.00631649 max: 0.148169 average: 0.0140007
ExecutionTime = 2373.7 s  ClockTime = 2375 s

Time = 994s

smoothSolver:  Solving for Ux, Initial residual = 9.47369e-06, Final residual = 3.48098e-07, No Iterations 4
smoothSolver:  Solving for Uy, Initial residual = 2.38884e-05, Final residual = 1.12959e-06, No Iterations 4
smoothSolver:  Solving for Uz, Initial residual = 1.74957e-05, Final residual = 8.06915e-07, No Iterations 4
GAMG:  Solving for p, Initial residual = 3.84393e-07, Final residual = 6.17783e-08, No Iterations 1
time step continuity errors : sum local = 9.68405e-05, global = -5.7167e-05, cumulative = -0.114488
smoothSolver:  Solving for nuTilda, Initial residual = 0.000117654, Final residual = 9.07052e-06, No Iterations 2
bounding nuTilda, min: -0.00631485 max: 0.1482 average: 0.0140022
ExecutionTime = 2375.71 s  ClockTime = 2377 s

Time = 995s

smoothSolver:  Solving for Ux, Initial residual = 9.44038e-06, Final residual = 3.47784e-07, No Iterations 4
smoothSolver:  Solving for Uy, Initial residual = 2.37815e-05, Final residual = 1.13306e-06, No Iterations 4
smoothSolver:  Solving for Uz, Initial residual = 1.74513e-05, Final residual = 8.09503e-07, No Iterations 4
GAMG:  Solving for p, Initial residual = 3.88586e-07, Final residual = 6.23364e-08, No Iterations 1
time step continuity errors : sum local = 9.7585e-05, global = -5.81052e-05, cumulative = -0.114546
smoothSolver:  Solving for nuTilda, Initial residual = 0.000117285, Final residual = 9.07188e-06, No Iterations 2
bounding nuTilda, min: -0.00630303 max: 0.148231 average: 0.0140033
ExecutionTime = 2377.78 s  ClockTime = 2379 s

Time = 996s

smoothSolver:  Solving for Ux, Initial residual = 9.40928e-06, Final residual = 3.47122e-07, No Iterations 4
smoothSolver:  Solving for Uy, Initial residual = 2.35696e-05, Final residual = 1.12081e-06, No Iterations 4
smoothSolver:  Solving for Uz, Initial residual = 1.73441e-05, Final residual = 8.02225e-07, No Iterations 4
GAMG:  Solving for p, Initial residual = 3.85987e-07, Final residual = 6.21709e-08, No Iterations 1
time step continuity errors : sum local = 9.71957e-05, global = -5.88397e-05, cumulative = -0.114605
smoothSolver:  Solving for nuTilda, Initial residual = 0.000116954, Final residual = 9.04388e-06, No Iterations 2
bounding nuTilda, min: -0.00631629 max: 0.148262 average: 0.0140053
ExecutionTime = 2379.83 s  ClockTime = 2381 s

Time = 997s

smoothSolver:  Solving for Ux, Initial residual = 9.41051e-06, Final residual = 3.46519e-07, No Iterations 4
smoothSolver:  Solving for Uy, Initial residual = 2.38655e-05, Final residual = 1.12674e-06, No Iterations 4
smoothSolver:  Solving for Uz, Initial residual = 1.74982e-05, Final residual = 8.0803e-07, No Iterations 4
GAMG:  Solving for p, Initial residual = 3.85819e-07, Final residual = 6.22178e-08, No Iterations 1
time step continuity errors : sum local = 9.71404e-05, global = -5.83484e-05, cumulative = -0.114663
smoothSolver:  Solving for nuTilda, Initial residual = 0.000116477, Final residual = 8.99226e-06, No Iterations 2
bounding nuTilda, min: -0.00631505 max: 0.148292 average: 0.014007
ExecutionTime = 2381.87 s  ClockTime = 2383 s

Time = 998s

smoothSolver:  Solving for Ux, Initial residual = 9.37979e-06, Final residual = 3.46309e-07, No Iterations 4
smoothSolver:  Solving for Uy, Initial residual = 2.37778e-05, Final residual = 1.12575e-06, No Iterations 4
smoothSolver:  Solving for Uz, Initial residual = 1.73937e-05, Final residual = 8.05894e-07, No Iterations 4
GAMG:  Solving for p, Initial residual = 3.84166e-07, Final residual = 6.17566e-08, No Iterations 1
time step continuity errors : sum local = 9.62967e-05, global = -5.83046e-05, cumulative = -0.114721
smoothSolver:  Solving for nuTilda, Initial residual = 0.000116206, Final residual = 8.98462e-06, No Iterations 2
bounding nuTilda, min: -0.00630284 max: 0.148323 average: 0.0140079
ExecutionTime = 2383.92 s  ClockTime = 2385 s

Time = 999s

smoothSolver:  Solving for Ux, Initial residual = 9.34663e-06, Final residual = 3.45384e-07, No Iterations 4
smoothSolver:  Solving for Uy, Initial residual = 2.34125e-05, Final residual = 1.10759e-06, No Iterations 4
smoothSolver:  Solving for Uz, Initial residual = 1.7246e-05, Final residual = 7.9672e-07, No Iterations 4
GAMG:  Solving for p, Initial residual = 3.854e-07, Final residual = 6.13922e-08, No Iterations 1
time step continuity errors : sum local = 9.56063e-05, global = -5.82476e-05, cumulative = -0.114779
smoothSolver:  Solving for nuTilda, Initial residual = 0.000115773, Final residual = 8.9657e-06, No Iterations 2
bounding nuTilda, min: -0.00631649 max: 0.148353 average: 0.01401
ExecutionTime = 2385.96 s  ClockTime = 2387 s

Time = 1000s

smoothSolver:  Solving for Ux, Initial residual = 9.33977e-06, Final residual = 3.44897e-07, No Iterations 4
smoothSolver:  Solving for Uy, Initial residual = 2.367e-05, Final residual = 1.11522e-06, No Iterations 4
smoothSolver:  Solving for Uz, Initial residual = 1.72854e-05, Final residual = 7.98507e-07, No Iterations 4
GAMG:  Solving for p, Initial residual = 3.7982e-07, Final residual = 6.02019e-08, No Iterations 1
time step continuity errors : sum local = 9.36334e-05, global = -5.58498e-05, cumulative = -0.114835
smoothSolver:  Solving for nuTilda, Initial residual = 0.000115418, Final residual = 8.90578e-06, No Iterations 2
bounding nuTilda, min: -0.00631485 max: 0.148384 average: 0.0140115
ExecutionTime = 2388.08 s  ClockTime = 2389 s

End

Finalising parallel run
