/*---------------------------------------------------------------------------*\
  =========                 |
  \\      /  F ield         | OpenFOAM: The Open Source CFD Toolbox
   \\    /   O peration     | Website:  https://openfoam.org
    \\  /    A nd           | Version:  11
     \\/     M anipulation  |
\*---------------------------------------------------------------------------*/
Build  : 11-d496a603da00
Exec   : foamRun -solver incompressibleFluid -parallel
Date   : Oct 19 2023
Time   : 15:53:35
Host   : "Laptop"
PID    : 35186
I/O    : uncollated
Case   : /home/tiago/OpenFOAM/tiago-11/run/wind_tunnel
nProcs : 4
Slaves : 
3
(
"Laptop.35187"
"Laptop.35188"
"Laptop.35192"
)

Pstream initialised with:
    floatTransfer      : false
    nProcsSimpleSum    : 0
    commsType          : nonBlocking
    polling iterations : 0
sigFpe : Enabling floating point exception trapping (FOAM_SIGFPE).
fileModificationChecking : Monitoring run-time modified files using timeStampMaster (fileModificationSkew 10)
allowSystemOperations : Allowing user-supplied system call operations

// * * * * * * * * * * * * * * * * * * * * * * * * * * * * * * * * * * * * * //
Create time

Create mesh for time = 0

Selecting solver incompressibleFluid
Selecting viscosity model constant
Selecting turbulence model type RAS
Selecting RAS turbulence model SpalartAllmaras
Selecting patchDistMethod meshWave
RAS
{
    model           SpalartAllmaras;
    turbulence      on;
    printCoeffs     on;
    sigmaNut        0.66666;
    kappa           0.41;
    Cb1             0.1355;
    Cb2             0.622;
    Cw2             0.3;
    Cw3             2;
    Cv1             7.1;
    Cs              0.3;
}

No MRF models present


SIMPLE: Convergence criteria found
        p: tolerance 0.0001
        U: tolerance 0.0001
        nuTilda: tolerance 0.0001


SIMPLE: Operating solver in steady-state mode with 1 outer corrector
SIMPLE: Operating solver in SIMPLE mode



Starting time loop

Time = 1s

smoothSolver:  Solving for Ux, Initial residual = 1, Final residual = 2.49972e-05, No Iterations 2
smoothSolver:  Solving for Uy, Initial residual = 1, Final residual = 3.44342e-05, No Iterations 2
smoothSolver:  Solving for Uz, Initial residual = 1, Final residual = 4.4433e-05, No Iterations 2
GAMG:  Solving for p, Initial residual = 1, Final residual = 0.00381663, No Iterations 12
time step continuity errors : sum local = 0.00267029, global = 0.000891224, cumulative = 0.000891224
smoothSolver:  Solving for nuTilda, Initial residual = 1, Final residual = 0.0281902, No Iterations 4
bounding nuTilda, min: -0.00104634 max: 0.0374 average: 0.000189588
ExecutionTime = 5.54076 s  ClockTime = 6 s

Time = 2s

smoothSolver:  Solving for Ux, Initial residual = 0.10904, Final residual = 0.00796191, No Iterations 4
smoothSolver:  Solving for Uy, Initial residual = 0.240235, Final residual = 0.0164961, No Iterations 4
smoothSolver:  Solving for Uz, Initial residual = 0.246172, Final residual = 0.0166067, No Iterations 4
GAMG:  Solving for p, Initial residual = 0.0115632, Final residual = 9.81537e-05, No Iterations 49
time step continuity errors : sum local = 0.0109746, global = -0.000184097, cumulative = 0.000707127
smoothSolver:  Solving for nuTilda, Initial residual = 0.157229, Final residual = 0.00475343, No Iterations 4
bounding nuTilda, min: -0.00225791 max: 0.0374 average: 0.000262114
ExecutionTime = 10.1002 s  ClockTime = 10 s

Time = 3s

smoothSolver:  Solving for Ux, Initial residual = 0.33077, Final residual = 0.0286645, No Iterations 4
smoothSolver:  Solving for Uy, Initial residual = 0.323387, Final residual = 0.030628, No Iterations 4
smoothSolver:  Solving for Uz, Initial residual = 0.306299, Final residual = 0.0290792, No Iterations 4
GAMG:  Solving for p, Initial residual = 5.78928e-05, Final residual = 3.60097e-07, No Iterations 6
time step continuity errors : sum local = 0.0137663, global = -0.00179301, cumulative = -0.00108589
smoothSolver:  Solving for nuTilda, Initial residual = 0.0935378, Final residual = 0.00368789, No Iterations 4
bounding nuTilda, min: -0.00189928 max: 0.0374 average: 0.000323956
ExecutionTime = 11.7766 s  ClockTime = 12 s

Time = 4s

smoothSolver:  Solving for Ux, Initial residual = 0.234102, Final residual = 0.0222327, No Iterations 4
smoothSolver:  Solving for Uy, Initial residual = 0.204298, Final residual = 0.00831202, No Iterations 6
smoothSolver:  Solving for Uz, Initial residual = 0.206397, Final residual = 0.00837759, No Iterations 6
GAMG:  Solving for p, Initial residual = 4.37688e-05, Final residual = 3.40984e-07, No Iterations 10
time step continuity errors : sum local = 0.0182681, global = -0.000295486, cumulative = -0.00138137
smoothSolver:  Solving for nuTilda, Initial residual = 0.0669979, Final residual = 0.0028117, No Iterations 4
bounding nuTilda, min: -0.00260666 max: 0.0376054 average: 0.000384906
ExecutionTime = 13.5851 s  ClockTime = 14 s

Time = 5s

smoothSolver:  Solving for Ux, Initial residual = 0.0781911, Final residual = 0.00692554, No Iterations 4
smoothSolver:  Solving for Uy, Initial residual = 0.127802, Final residual = 0.0116644, No Iterations 4
smoothSolver:  Solving for Uz, Initial residual = 0.12251, Final residual = 0.0122193, No Iterations 4
GAMG:  Solving for p, Initial residual = 0.000149677, Final residual = 1.43969e-06, No Iterations 8
time step continuity errors : sum local = 0.023524, global = -0.000756259, cumulative = -0.00213763
smoothSolver:  Solving for nuTilda, Initial residual = 0.0537822, Final residual = 0.00230317, No Iterations 4
bounding nuTilda, min: -0.00392593 max: 0.037769 average: 0.00044497
ExecutionTime = 15.7274 s  ClockTime = 16 s

Time = 6s

smoothSolver:  Solving for Ux, Initial residual = 0.141916, Final residual = 0.00881208, No Iterations 4
smoothSolver:  Solving for Uy, Initial residual = 0.132112, Final residual = 0.0102213, No Iterations 4
smoothSolver:  Solving for Uz, Initial residual = 0.11838, Final residual = 0.00924197, No Iterations 4
GAMG:  Solving for p, Initial residual = 0.000120935, Final residual = 1.1668e-06, No Iterations 6
time step continuity errors : sum local = 0.023453, global = 0.00300881, cumulative = 0.00087118
smoothSolver:  Solving for nuTilda, Initial residual = 0.0457916, Final residual = 0.0019355, No Iterations 4
bounding nuTilda, min: -0.00459625 max: 0.0377299 average: 0.000506623
ExecutionTime = 17.6239 s  ClockTime = 18 s

Time = 7s

smoothSolver:  Solving for Ux, Initial residual = 0.136548, Final residual = 0.0123904, No Iterations 4
smoothSolver:  Solving for Uy, Initial residual = 0.135553, Final residual = 0.0111547, No Iterations 4
smoothSolver:  Solving for Uz, Initial residual = 0.130803, Final residual = 0.0116025, No Iterations 4
GAMG:  Solving for p, Initial residual = 9.1072e-05, Final residual = 7.70849e-07, No Iterations 8
time step continuity errors : sum local = 0.0190553, global = -8.1385e-05, cumulative = 0.000789795
smoothSolver:  Solving for nuTilda, Initial residual = 0.0395586, Final residual = 0.00164096, No Iterations 4
bounding nuTilda, min: -0.00514359 max: 0.0375901 average: 0.000567498
ExecutionTime = 19.5438 s  ClockTime = 20 s

Time = 8s

smoothSolver:  Solving for Ux, Initial residual = 0.0760995, Final residual = 0.00630283, No Iterations 4
smoothSolver:  Solving for Uy, Initial residual = 0.104847, Final residual = 0.00784601, No Iterations 4
smoothSolver:  Solving for Uz, Initial residual = 0.107408, Final residual = 0.00838013, No Iterations 4
GAMG:  Solving for p, Initial residual = 0.000220594, Final residual = 2.16503e-06, No Iterations 7
time step continuity errors : sum local = 0.0185914, global = 0.000261748, cumulative = 0.00105154
smoothSolver:  Solving for nuTilda, Initial residual = 0.0339102, Final residual = 0.00142111, No Iterations 4
bounding nuTilda, min: -0.00513028 max: 0.0375258 average: 0.000628706
ExecutionTime = 21.3901 s  ClockTime = 22 s

Time = 9s

smoothSolver:  Solving for Ux, Initial residual = 0.09973, Final residual = 0.00612665, No Iterations 4
smoothSolver:  Solving for Uy, Initial residual = 0.0981998, Final residual = 0.00645758, No Iterations 4
smoothSolver:  Solving for Uz, Initial residual = 0.0955549, Final residual = 0.00599352, No Iterations 4
GAMG:  Solving for p, Initial residual = 0.000156222, Final residual = 9.58374e-07, No Iterations 6
time step continuity errors : sum local = 0.0110465, global = -0.00153188, cumulative = -0.000480333
smoothSolver:  Solving for nuTilda, Initial residual = 0.0298489, Final residual = 0.00124397, No Iterations 4
bounding nuTilda, min: -0.00509751 max: 0.0374852 average: 0.000688587
ExecutionTime = 23.7089 s  ClockTime = 24 s

Time = 10s

smoothSolver:  Solving for Ux, Initial residual = 0.0785321, Final residual = 0.00692545, No Iterations 4
smoothSolver:  Solving for Uy, Initial residual = 0.0918137, Final residual = 0.00695044, No Iterations 4
smoothSolver:  Solving for Uz, Initial residual = 0.0903019, Final residual = 0.00722875, No Iterations 4
GAMG:  Solving for p, Initial residual = 9.78683e-05, Final residual = 6.34639e-07, No Iterations 7
time step continuity errors : sum local = 0.0108434, global = -0.000853913, cumulative = -0.00133425
smoothSolver:  Solving for nuTilda, Initial residual = 0.0266493, Final residual = 0.00110813, No Iterations 4
bounding nuTilda, min: -0.00519876 max: 0.0375262 average: 0.000748526
ExecutionTime = 25.9232 s  ClockTime = 26 s

Time = 11s

smoothSolver:  Solving for Ux, Initial residual = 0.0536845, Final residual = 0.00394618, No Iterations 4
smoothSolver:  Solving for Uy, Initial residual = 0.0783214, Final residual = 0.00604099, No Iterations 4
smoothSolver:  Solving for Uz, Initial residual = 0.0796049, Final residual = 0.00663536, No Iterations 4
GAMG:  Solving for p, Initial residual = 0.000173986, Final residual = 1.07536e-06, No Iterations 7
time step continuity errors : sum local = 0.00915028, global = -0.000268882, cumulative = -0.00160313
smoothSolver:  Solving for nuTilda, Initial residual = 0.0241579, Final residual = 0.00100073, No Iterations 4
bounding nuTilda, min: -0.00521006 max: 0.0375426 average: 0.00080549
ExecutionTime = 28.2464 s  ClockTime = 28 s

Time = 12s

smoothSolver:  Solving for Ux, Initial residual = 0.053763, Final residual = 0.00316295, No Iterations 4
smoothSolver:  Solving for Uy, Initial residual = 0.0743635, Final residual = 0.00516157, No Iterations 4
smoothSolver:  Solving for Uz, Initial residual = 0.0712157, Final residual = 0.00488793, No Iterations 4
GAMG:  Solving for p, Initial residual = 0.000834523, Final residual = 4.76984e-06, No Iterations 6
time step continuity errors : sum local = 0.00783682, global = 0.00106667, cumulative = -0.000536456
smoothSolver:  Solving for nuTilda, Initial residual = 0.0221423, Final residual = 0.000913408, No Iterations 4
bounding nuTilda, min: -0.00522341 max: 0.03754 average: 0.000860005
ExecutionTime = 29.918 s  ClockTime = 30 s

Time = 13s

smoothSolver:  Solving for Ux, Initial residual = 0.0456855, Final residual = 0.00397268, No Iterations 4
smoothSolver:  Solving for Uy, Initial residual = 0.0682724, Final residual = 0.00497072, No Iterations 4
smoothSolver:  Solving for Uz, Initial residual = 0.0648093, Final residual = 0.0047107, No Iterations 4
GAMG:  Solving for p, Initial residual = 0.000243716, Final residual = 1.11113e-06, No Iterations 7
time step continuity errors : sum local = 0.00586716, global = 0.000475526, cumulative = -6.09305e-05
smoothSolver:  Solving for nuTilda, Initial residual = 0.020489, Final residual = 0.000840821, No Iterations 4
bounding nuTilda, min: -0.00519327 max: 0.037524 average: 0.000911793
ExecutionTime = 32.1488 s  ClockTime = 32 s

Time = 14s

smoothSolver:  Solving for Ux, Initial residual = 0.0430681, Final residual = 0.00275547, No Iterations 4
smoothSolver:  Solving for Uy, Initial residual = 0.0648547, Final residual = 0.00458758, No Iterations 4
smoothSolver:  Solving for Uz, Initial residual = 0.0638201, Final residual = 0.00458465, No Iterations 4
GAMG:  Solving for p, Initial residual = 0.000515717, Final residual = 2.36457e-06, No Iterations 7
time step continuity errors : sum local = 0.00533944, global = 0.000271957, cumulative = 0.000211027
smoothSolver:  Solving for nuTilda, Initial residual = 0.019073, Final residual = 0.000778928, No Iterations 4
bounding nuTilda, min: -0.00520395 max: 0.0375089 average: 0.000962557
ExecutionTime = 34.0652 s  ClockTime = 34 s

Time = 15s

smoothSolver:  Solving for Ux, Initial residual = 0.0405711, Final residual = 0.00216727, No Iterations 4
smoothSolver:  Solving for Uy, Initial residual = 0.0665739, Final residual = 0.00414568, No Iterations 4
smoothSolver:  Solving for Uz, Initial residual = 0.0662505, Final residual = 0.00396423, No Iterations 4
GAMG:  Solving for p, Initial residual = 0.000370746, Final residual = 1.89485e-06, No Iterations 6
time step continuity errors : sum local = 0.00567485, global = -0.000714339, cumulative = -0.000503313
smoothSolver:  Solving for nuTilda, Initial residual = 0.0178018, Final residual = 0.000725409, No Iterations 4
bounding nuTilda, min: -0.00517857 max: 0.0375134 average: 0.00101071
ExecutionTime = 36.0482 s  ClockTime = 36 s

Time = 16s

smoothSolver:  Solving for Ux, Initial residual = 0.0365081, Final residual = 0.00265957, No Iterations 4
smoothSolver:  Solving for Uy, Initial residual = 0.0667814, Final residual = 0.00407332, No Iterations 4
smoothSolver:  Solving for Uz, Initial residual = 0.0665819, Final residual = 0.00386043, No Iterations 4
GAMG:  Solving for p, Initial residual = 0.000187861, Final residual = 1.20618e-06, No Iterations 6
time step continuity errors : sum local = 0.00697044, global = -0.000644619, cumulative = -0.00114793
smoothSolver:  Solving for nuTilda, Initial residual = 0.0167595, Final residual = 0.00067961, No Iterations 4
bounding nuTilda, min: -0.0052014 max: 0.0375091 average: 0.00105724
ExecutionTime = 37.9202 s  ClockTime = 38 s

Time = 17s

smoothSolver:  Solving for Ux, Initial residual = 0.0368364, Final residual = 0.00236318, No Iterations 4
smoothSolver:  Solving for Uy, Initial residual = 0.0642165, Final residual = 0.00387782, No Iterations 4
smoothSolver:  Solving for Uz, Initial residual = 0.0641259, Final residual = 0.00370487, No Iterations 4
GAMG:  Solving for p, Initial residual = 0.000236148, Final residual = 2.02893e-06, No Iterations 5
time step continuity errors : sum local = 0.00917301, global = -0.000181269, cumulative = -0.0013292
smoothSolver:  Solving for nuTilda, Initial residual = 0.0158975, Final residual = 0.000640554, No Iterations 4
bounding nuTilda, min: -0.00518282 max: 0.037501 average: 0.00110092
ExecutionTime = 39.5514 s  ClockTime = 40 s

Time = 18s

smoothSolver:  Solving for Ux, Initial residual = 0.0342172, Final residual = 0.00190024, No Iterations 4
smoothSolver:  Solving for Uy, Initial residual = 0.0608395, Final residual = 0.00350219, No Iterations 4
smoothSolver:  Solving for Uz, Initial residual = 0.0596519, Final residual = 0.00319522, No Iterations 4
GAMG:  Solving for p, Initial residual = 0.000552376, Final residual = 5.40398e-06, No Iterations 5
time step continuity errors : sum local = 0.0102834, global = 1.29467e-05, cumulative = -0.00131625
smoothSolver:  Solving for nuTilda, Initial residual = 0.0150654, Final residual = 0.000606599, No Iterations 4
bounding nuTilda, min: -0.00520269 max: 0.0374929 average: 0.00114448
ExecutionTime = 41.6422 s  ClockTime = 42 s

Time = 19s

smoothSolver:  Solving for Ux, Initial residual = 0.0322229, Final residual = 0.00196876, No Iterations 4
smoothSolver:  Solving for Uy, Initial residual = 0.0617738, Final residual = 0.00343481, No Iterations 4
smoothSolver:  Solving for Uz, Initial residual = 0.0599768, Final residual = 0.00310839, No Iterations 4
GAMG:  Solving for p, Initial residual = 0.00504036, Final residual = 1.89334e-05, No Iterations 6
time step continuity errors : sum local = 0.00397277, global = 0.000507345, cumulative = -0.000808908
smoothSolver:  Solving for nuTilda, Initial residual = 0.014297, Final residual = 0.000576411, No Iterations 4
bounding nuTilda, min: -0.00518473 max: 0.0375022 average: 0.00118646
ExecutionTime = 43.6159 s  ClockTime = 44 s

Time = 20s

smoothSolver:  Solving for Ux, Initial residual = 0.0319174, Final residual = 0.0017668, No Iterations 4
smoothSolver:  Solving for Uy, Initial residual = 0.0652232, Final residual = 0.00355229, No Iterations 4
smoothSolver:  Solving for Uz, Initial residual = 0.0639953, Final residual = 0.0033974, No Iterations 4
GAMG:  Solving for p, Initial residual = 0.00378184, Final residual = 3.68155e-05, No Iterations 5
time step continuity errors : sum local = 0.0101395, global = 8.68223e-05, cumulative = -0.000722086
smoothSolver:  Solving for nuTilda, Initial residual = 0.0136216, Final residual = 0.000548967, No Iterations 4
bounding nuTilda, min: -0.00519927 max: 0.0375127 average: 0.00122864
ExecutionTime = 45.2701 s  ClockTime = 45 s

Time = 21s

smoothSolver:  Solving for Ux, Initial residual = 0.0298437, Final residual = 0.00155931, No Iterations 4
smoothSolver:  Solving for Uy, Initial residual = 0.0665445, Final residual = 0.00337869, No Iterations 4
smoothSolver:  Solving for Uz, Initial residual = 0.0645006, Final residual = 0.00311677, No Iterations 4
GAMG:  Solving for p, Initial residual = 0.000875869, Final residual = 8.6859e-06, No Iterations 4
time step continuity errors : sum local = 0.010252, global = -0.000932093, cumulative = -0.00165418
smoothSolver:  Solving for nuTilda, Initial residual = 0.0130661, Final residual = 0.000525069, No Iterations 4
bounding nuTilda, min: -0.00518375 max: 0.0375122 average: 0.00126892
ExecutionTime = 46.9821 s  ClockTime = 47 s

Time = 22s

smoothSolver:  Solving for Ux, Initial residual = 0.0299902, Final residual = 0.00164995, No Iterations 4
smoothSolver:  Solving for Uy, Initial residual = 0.0654422, Final residual = 0.00321637, No Iterations 4
smoothSolver:  Solving for Uz, Initial residual = 0.0621212, Final residual = 0.00273056, No Iterations 4
GAMG:  Solving for p, Initial residual = 0.00057683, Final residual = 5.25878e-06, No Iterations 4
time step continuity errors : sum local = 0.0094766, global = -0.00114248, cumulative = -0.00279666
smoothSolver:  Solving for nuTilda, Initial residual = 0.0125962, Final residual = 0.000503759, No Iterations 4
bounding nuTilda, min: -0.00519833 max: 0.0375061 average: 0.00130895
ExecutionTime = 48.6241 s  ClockTime = 49 s

Time = 23s

smoothSolver:  Solving for Ux, Initial residual = 0.0316209, Final residual = 0.00170207, No Iterations 4
smoothSolver:  Solving for Uy, Initial residual = 0.0648976, Final residual = 0.00315473, No Iterations 4
smoothSolver:  Solving for Uz, Initial residual = 0.0608934, Final residual = 0.002709, No Iterations 4
GAMG:  Solving for p, Initial residual = 0.000517967, Final residual = 4.71674e-06, No Iterations 4
time step continuity errors : sum local = 0.00959547, global = -0.00110397, cumulative = -0.00390063
smoothSolver:  Solving for nuTilda, Initial residual = 0.0121737, Final residual = 0.000484891, No Iterations 4
bounding nuTilda, min: -0.00518073 max: 0.0375139 average: 0.00134733
ExecutionTime = 50.1581 s  ClockTime = 50 s

Time = 24s

smoothSolver:  Solving for Ux, Initial residual = 0.0302121, Final residual = 0.00153307, No Iterations 4
smoothSolver:  Solving for Uy, Initial residual = 0.0658091, Final residual = 0.00311478, No Iterations 4
smoothSolver:  Solving for Uz, Initial residual = 0.0618605, Final residual = 0.00271178, No Iterations 4
GAMG:  Solving for p, Initial residual = 0.000592049, Final residual = 2.91345e-06, No Iterations 5
time step continuity errors : sum local = 0.00520135, global = 0.000142863, cumulative = -0.00375777
smoothSolver:  Solving for nuTilda, Initial residual = 0.0117752, Final residual = 0.000468119, No Iterations 4
bounding nuTilda, min: -0.00519858 max: 0.0375188 average: 0.0013864
ExecutionTime = 52.1361 s  ClockTime = 52 s

Time = 25s

smoothSolver:  Solving for Ux, Initial residual = 0.029312, Final residual = 0.00139741, No Iterations 4
smoothSolver:  Solving for Uy, Initial residual = 0.0691722, Final residual = 0.00314214, No Iterations 4
smoothSolver:  Solving for Uz, Initial residual = 0.0651463, Final residual = 0.0027295, No Iterations 4
GAMG:  Solving for p, Initial residual = 0.00076062, Final residual = 5.74727e-06, No Iterations 4
time step continuity errors : sum local = 0.00809263, global = -0.000182821, cumulative = -0.00394059
smoothSolver:  Solving for nuTilda, Initial residual = 0.011431, Final residual = 0.000452674, No Iterations 4
bounding nuTilda, min: -0.00518141 max: 0.0375177 average: 0.00142419
ExecutionTime = 53.8914 s  ClockTime = 54 s

Time = 26s

smoothSolver:  Solving for Ux, Initial residual = 0.0292544, Final residual = 0.00135903, No Iterations 4
smoothSolver:  Solving for Uy, Initial residual = 0.0716981, Final residual = 0.00315225, No Iterations 4
smoothSolver:  Solving for Uz, Initial residual = 0.0680765, Final residual = 0.00280095, No Iterations 4
GAMG:  Solving for p, Initial residual = 0.000903905, Final residual = 6.2142e-06, No Iterations 4
time step continuity errors : sum local = 0.00755279, global = 2.56428e-05, cumulative = -0.00391494
smoothSolver:  Solving for nuTilda, Initial residual = 0.0111456, Final residual = 0.000438447, No Iterations 4
bounding nuTilda, min: -0.00519827 max: 0.0375142 average: 0.00146226
ExecutionTime = 55.9652 s  ClockTime = 56 s

Time = 27s

smoothSolver:  Solving for Ux, Initial residual = 0.0294411, Final residual = 0.00133409, No Iterations 4
smoothSolver:  Solving for Uy, Initial residual = 0.0721883, Final residual = 0.00305222, No Iterations 4
smoothSolver:  Solving for Uz, Initial residual = 0.0682563, Final residual = 0.00271464, No Iterations 4
GAMG:  Solving for p, Initial residual = 0.000821699, Final residual = 6.03688e-06, No Iterations 4
time step continuity errors : sum local = 0.00809853, global = 4.76588e-05, cumulative = -0.00386729
smoothSolver:  Solving for nuTilda, Initial residual = 0.0109069, Final residual = 0.000425619, No Iterations 4
bounding nuTilda, min: -0.00518014 max: 0.0375255 average: 0.00149873
ExecutionTime = 57.561 s  ClockTime = 58 s

Time = 28s

smoothSolver:  Solving for Ux, Initial residual = 0.0300232, Final residual = 0.0013192, No Iterations 4
smoothSolver:  Solving for Uy, Initial residual = 0.0717396, Final residual = 0.00291149, No Iterations 4
smoothSolver:  Solving for Uz, Initial residual = 0.0672046, Final residual = 0.00255072, No Iterations 4
GAMG:  Solving for p, Initial residual = 0.000683571, Final residual = 5.48594e-06, No Iterations 4
time step continuity errors : sum local = 0.00894578, global = 9.53152e-05, cumulative = -0.00377197
smoothSolver:  Solving for nuTilda, Initial residual = 0.0106957, Final residual = 0.000414051, No Iterations 4
bounding nuTilda, min: -0.00519902 max: 0.0375292 average: 0.00153564
ExecutionTime = 59.3863 s  ClockTime = 60 s

Time = 29s

smoothSolver:  Solving for Ux, Initial residual = 0.0300808, Final residual = 0.00131161, No Iterations 4
smoothSolver:  Solving for Uy, Initial residual = 0.0727343, Final residual = 0.00289075, No Iterations 4
smoothSolver:  Solving for Uz, Initial residual = 0.068148, Final residual = 0.00253919, No Iterations 4
GAMG:  Solving for p, Initial residual = 0.000569015, Final residual = 4.25755e-06, No Iterations 4
time step continuity errors : sum local = 0.00834567, global = -0.000368386, cumulative = -0.00414036
smoothSolver:  Solving for nuTilda, Initial residual = 0.0105127, Final residual = 0.000403578, No Iterations 4
bounding nuTilda, min: -0.00518088 max: 0.0375286 average: 0.00157143
ExecutionTime = 61.3168 s  ClockTime = 62 s

Time = 30s

smoothSolver:  Solving for Ux, Initial residual = 0.0294225, Final residual = 0.00125697, No Iterations 4
smoothSolver:  Solving for Uy, Initial residual = 0.0748787, Final residual = 0.00295153, No Iterations 4
smoothSolver:  Solving for Uz, Initial residual = 0.0711623, Final residual = 0.00267258, No Iterations 4
GAMG:  Solving for p, Initial residual = 0.000529174, Final residual = 4.17628e-06, No Iterations 4
time step continuity errors : sum local = 0.00885485, global = 6.11139e-05, cumulative = -0.00407924
smoothSolver:  Solving for nuTilda, Initial residual = 0.010348, Final residual = 0.000393878, No Iterations 4
bounding nuTilda, min: -0.00519911 max: 0.0375322 average: 0.00160795
ExecutionTime = 62.9502 s  ClockTime = 63 s

Time = 31s

smoothSolver:  Solving for Ux, Initial residual = 0.0286822, Final residual = 0.00117763, No Iterations 4
smoothSolver:  Solving for Uy, Initial residual = 0.0765905, Final residual = 0.00298004, No Iterations 4
smoothSolver:  Solving for Uz, Initial residual = 0.0737091, Final residual = 0.00271262, No Iterations 4
GAMG:  Solving for p, Initial residual = 0.000607841, Final residual = 3.64217e-06, No Iterations 4
time step continuity errors : sum local = 0.00681866, global = -0.000184217, cumulative = -0.00426346
smoothSolver:  Solving for nuTilda, Initial residual = 0.0102065, Final residual = 0.000384921, No Iterations 4
bounding nuTilda, min: -0.00518089 max: 0.0375386 average: 0.00164326
ExecutionTime = 64.4651 s  ClockTime = 65 s

Time = 32s

smoothSolver:  Solving for Ux, Initial residual = 0.0286178, Final residual = 0.00114518, No Iterations 4
smoothSolver:  Solving for Uy, Initial residual = 0.0768712, Final residual = 0.00297221, No Iterations 4
smoothSolver:  Solving for Uz, Initial residual = 0.0741645, Final residual = 0.00266391, No Iterations 4
GAMG:  Solving for p, Initial residual = 0.000693638, Final residual = 3.86332e-06, No Iterations 4
time step continuity errors : sum local = 0.00639957, global = -4.51532e-05, cumulative = -0.00430861
smoothSolver:  Solving for nuTilda, Initial residual = 0.0100789, Final residual = 0.000376099, No Iterations 4
bounding nuTilda, min: -0.00519836 max: 0.0375399 average: 0.00167919
ExecutionTime = 66.0538 s  ClockTime = 66 s

Time = 33s

smoothSolver:  Solving for Ux, Initial residual = 0.028907, Final residual = 0.00113816, No Iterations 4
smoothSolver:  Solving for Uy, Initial residual = 0.0763002, Final residual = 0.0029402, No Iterations 4
smoothSolver:  Solving for Uz, Initial residual = 0.0736906, Final residual = 0.00263904, No Iterations 4
GAMG:  Solving for p, Initial residual = 0.000736776, Final residual = 3.41982e-06, No Iterations 4
time step continuity errors : sum local = 0.00536192, global = -0.000261631, cumulative = -0.00457024
smoothSolver:  Solving for nuTilda, Initial residual = 0.00996559, Final residual = 0.00036745, No Iterations 4
bounding nuTilda, min: -0.00518059 max: 0.0375384 average: 0.00171393
ExecutionTime = 67.5776 s  ClockTime = 68 s

Time = 34s

smoothSolver:  Solving for Ux, Initial residual = 0.0288109, Final residual = 0.00111988, No Iterations 4
smoothSolver:  Solving for Uy, Initial residual = 0.0760616, Final residual = 0.00290817, No Iterations 4
smoothSolver:  Solving for Uz, Initial residual = 0.0736491, Final residual = 0.0026014, No Iterations 4
GAMG:  Solving for p, Initial residual = 0.000748205, Final residual = 6.90042e-06, No Iterations 3
time step continuity errors : sum local = 0.0107089, global = -0.00138386, cumulative = -0.0059541
smoothSolver:  Solving for nuTilda, Initial residual = 0.00985483, Final residual = 0.000358776, No Iterations 4
bounding nuTilda, min: -0.0051986 max: 0.0375471 average: 0.00174927
ExecutionTime = 69.0062 s  ClockTime = 69 s

Time = 35s

smoothSolver:  Solving for Ux, Initial residual = 0.0282954, Final residual = 0.00109181, No Iterations 4
smoothSolver:  Solving for Uy, Initial residual = 0.0766761, Final residual = 0.0028915, No Iterations 4
smoothSolver:  Solving for Uz, Initial residual = 0.0740807, Final residual = 0.00257259, No Iterations 4
GAMG:  Solving for p, Initial residual = 0.000751146, Final residual = 7.07341e-06, No Iterations 3
time step continuity errors : sum local = 0.0110715, global = -0.00168185, cumulative = -0.00763595
smoothSolver:  Solving for nuTilda, Initial residual = 0.00974996, Final residual = 0.000349891, No Iterations 4
bounding nuTilda, min: -0.00518047 max: 0.0375508 average: 0.00178344
ExecutionTime = 70.408 s  ClockTime = 71 s

Time = 36s

smoothSolver:  Solving for Ux, Initial residual = 0.0276863, Final residual = 0.00105821, No Iterations 4
smoothSolver:  Solving for Uy, Initial residual = 0.0774662, Final residual = 0.00287455, No Iterations 4
smoothSolver:  Solving for Uz, Initial residual = 0.0746773, Final residual = 0.00255786, No Iterations 4
GAMG:  Solving for p, Initial residual = 0.000734094, Final residual = 4.90189e-06, No Iterations 4
time step continuity errors : sum local = 0.00784448, global = 5.9466e-05, cumulative = -0.00757649
smoothSolver:  Solving for nuTilda, Initial residual = 0.00965566, Final residual = 0.000341278, No Iterations 4
bounding nuTilda, min: -0.00519832 max: 0.0375513 average: 0.00181829
ExecutionTime = 72.6383 s  ClockTime = 73 s

Time = 37s

smoothSolver:  Solving for Ux, Initial residual = 0.0274518, Final residual = 0.00103026, No Iterations 4
smoothSolver:  Solving for Uy, Initial residual = 0.0780913, Final residual = 0.00286969, No Iterations 4
smoothSolver:  Solving for Uz, Initial residual = 0.0746503, Final residual = 0.00253778, No Iterations 4
GAMG:  Solving for p, Initial residual = 0.000670804, Final residual = 5.93689e-06, No Iterations 3
time step continuity errors : sum local = 0.0104263, global = -0.00138837, cumulative = -0.00896486
smoothSolver:  Solving for nuTilda, Initial residual = 0.0095794, Final residual = 0.000332941, No Iterations 4
bounding nuTilda, min: -0.00518076 max: 0.0375558 average: 0.00185197
ExecutionTime = 74.4464 s  ClockTime = 75 s

Time = 38s

smoothSolver:  Solving for Ux, Initial residual = 0.0275457, Final residual = 0.00101981, No Iterations 4
smoothSolver:  Solving for Uy, Initial residual = 0.0779598, Final residual = 0.00281732, No Iterations 4
smoothSolver:  Solving for Uz, Initial residual = 0.0734115, Final residual = 0.00246506, No Iterations 4
GAMG:  Solving for p, Initial residual = 0.000667578, Final residual = 5.8416e-06, No Iterations 3
time step continuity errors : sum local = 0.0103072, global = -0.00113388, cumulative = -0.0100987
smoothSolver:  Solving for nuTilda, Initial residual = 0.00951012, Final residual = 0.000325306, No Iterations 4
bounding nuTilda, min: -0.00519869 max: 0.037561 average: 0.00188637
ExecutionTime = 76.1917 s  ClockTime = 76 s

Time = 39s

smoothSolver:  Solving for Ux, Initial residual = 0.0274547, Final residual = 0.00100626, No Iterations 4
smoothSolver:  Solving for Uy, Initial residual = 0.0779695, Final residual = 0.00276642, No Iterations 4
smoothSolver:  Solving for Uz, Initial residual = 0.0728866, Final residual = 0.00240964, No Iterations 4
GAMG:  Solving for p, Initial residual = 0.000675798, Final residual = 5.83541e-06, No Iterations 3
time step continuity errors : sum local = 0.010344, global = -0.00105794, cumulative = -0.0111567
smoothSolver:  Solving for nuTilda, Initial residual = 0.00945729, Final residual = 0.000318467, No Iterations 4
bounding nuTilda, min: -0.00518042 max: 0.0375628 average: 0.00191982
ExecutionTime = 77.8047 s  ClockTime = 78 s

Time = 40s

smoothSolver:  Solving for Ux, Initial residual = 0.0270711, Final residual = 0.000980015, No Iterations 4
smoothSolver:  Solving for Uy, Initial residual = 0.078298, Final residual = 0.0027209, No Iterations 4
smoothSolver:  Solving for Uz, Initial residual = 0.0733081, Final residual = 0.00237759, No Iterations 4
GAMG:  Solving for p, Initial residual = 0.000676208, Final residual = 6.13188e-06, No Iterations 3
time step continuity errors : sum local = 0.0110171, global = -0.001091, cumulative = -0.0122477
smoothSolver:  Solving for nuTilda, Initial residual = 0.00941301, Final residual = 0.000311509, No Iterations 4
bounding nuTilda, min: -0.00519862 max: 0.0375639 average: 0.00195426
ExecutionTime = 79.5392 s  ClockTime = 80 s

Time = 41s

smoothSolver:  Solving for Ux, Initial residual = 0.0265692, Final residual = 0.000946979, No Iterations 4
smoothSolver:  Solving for Uy, Initial residual = 0.0787616, Final residual = 0.00267572, No Iterations 4
smoothSolver:  Solving for Uz, Initial residual = 0.0742392, Final residual = 0.00237552, No Iterations 4
GAMG:  Solving for p, Initial residual = 0.000678748, Final residual = 3.95047e-06, No Iterations 4
time step continuity errors : sum local = 0.00719673, global = -0.0001208, cumulative = -0.0123685
smoothSolver:  Solving for nuTilda, Initial residual = 0.00937873, Final residual = 0.000304527, No Iterations 4
bounding nuTilda, min: -0.00518056 max: 0.0375701 average: 0.00198797
ExecutionTime = 82.412 s  ClockTime = 83 s

Time = 42s

smoothSolver:  Solving for Ux, Initial residual = 0.0261895, Final residual = 0.000920189, No Iterations 4
smoothSolver:  Solving for Uy, Initial residual = 0.0790501, Final residual = 0.00264874, No Iterations 4
smoothSolver:  Solving for Uz, Initial residual = 0.0746705, Final residual = 0.00238282, No Iterations 4
GAMG:  Solving for p, Initial residual = 0.000696185, Final residual = 6.65829e-06, No Iterations 3
time step continuity errors : sum local = 0.0121467, global = -0.00180311, cumulative = -0.0141716
smoothSolver:  Solving for nuTilda, Initial residual = 0.0093566, Final residual = 0.000297558, No Iterations 4
bounding nuTilda, min: -0.00519896 max: 0.0375728 average: 0.00202266
ExecutionTime = 84.3796 s  ClockTime = 85 s

Time = 43s

smoothSolver:  Solving for Ux, Initial residual = 0.0260318, Final residual = 0.000907923, No Iterations 4
smoothSolver:  Solving for Uy, Initial residual = 0.0792668, Final residual = 0.00261646, No Iterations 4
smoothSolver:  Solving for Uz, Initial residual = 0.0743734, Final residual = 0.00234925, No Iterations 4
GAMG:  Solving for p, Initial residual = 0.000700355, Final residual = 4.15058e-06, No Iterations 4
time step continuity errors : sum local = 0.00769497, global = 0.000659991, cumulative = -0.0135116
smoothSolver:  Solving for nuTilda, Initial residual = 0.00935023, Final residual = 0.000291429, No Iterations 4
bounding nuTilda, min: -0.00518036 max: 0.0375732 average: 0.00205668
ExecutionTime = 86.851 s  ClockTime = 87 s

Time = 44s

smoothSolver:  Solving for Ux, Initial residual = 0.0257625, Final residual = 0.00088766, No Iterations 4
smoothSolver:  Solving for Uy, Initial residual = 0.0793375, Final residual = 0.00263027, No Iterations 4
smoothSolver:  Solving for Uz, Initial residual = 0.0741616, Final residual = 0.00233978, No Iterations 4
GAMG:  Solving for p, Initial residual = 0.000664704, Final residual = 6.00761e-06, No Iterations 3
time step continuity errors : sum local = 0.0120088, global = -0.00222357, cumulative = -0.0157352
smoothSolver:  Solving for nuTilda, Initial residual = 0.00934115, Final residual = 0.000285627, No Iterations 4
bounding nuTilda, min: -0.00519876 max: 0.0375781 average: 0.00209174
ExecutionTime = 89.8048 s  ClockTime = 90 s

Time = 45s

smoothSolver:  Solving for Ux, Initial residual = 0.0255163, Final residual = 0.000876777, No Iterations 4
smoothSolver:  Solving for Uy, Initial residual = 0.0797673, Final residual = 0.00266987, No Iterations 4
smoothSolver:  Solving for Uz, Initial residual = 0.0740221, Final residual = 0.00234717, No Iterations 4
GAMG:  Solving for p, Initial residual = 0.000692211, Final residual = 4.01386e-06, No Iterations 4
time step continuity errors : sum local = 0.0079405, global = 0.00107214, cumulative = -0.014663
smoothSolver:  Solving for nuTilda, Initial residual = 0.0093474, Final residual = 0.000281014, No Iterations 4
bounding nuTilda, min: -0.00518056 max: 0.0375816 average: 0.00212631
ExecutionTime = 91.9234 s  ClockTime = 92 s

Time = 46s

smoothSolver:  Solving for Ux, Initial residual = 0.0251784, Final residual = 0.000867109, No Iterations 4
smoothSolver:  Solving for Uy, Initial residual = 0.0805244, Final residual = 0.00275686, No Iterations 4
smoothSolver:  Solving for Uz, Initial residual = 0.0745091, Final residual = 0.00242633, No Iterations 4
GAMG:  Solving for p, Initial residual = 0.000662185, Final residual = 5.65342e-06, No Iterations 3
time step continuity errors : sum local = 0.0119879, global = -0.00216207, cumulative = -0.0168251
smoothSolver:  Solving for nuTilda, Initial residual = 0.00935843, Final residual = 0.000276467, No Iterations 4
bounding nuTilda, min: -0.00519832 max: 0.0375829 average: 0.00216209
ExecutionTime = 94.2981 s  ClockTime = 94 s

Time = 47s

smoothSolver:  Solving for Ux, Initial residual = 0.0250589, Final residual = 0.000869513, No Iterations 4
smoothSolver:  Solving for Uy, Initial residual = 0.0815476, Final residual = 0.00284464, No Iterations 4
smoothSolver:  Solving for Uz, Initial residual = 0.0750512, Final residual = 0.00249659, No Iterations 4
GAMG:  Solving for p, Initial residual = 0.000662457, Final residual = 6.49588e-06, No Iterations 3
time step continuity errors : sum local = 0.0141532, global = -0.00287297, cumulative = -0.0196981
smoothSolver:  Solving for nuTilda, Initial residual = 0.00937239, Final residual = 0.000272636, No Iterations 4
bounding nuTilda, min: -0.00518024 max: 0.0375851 average: 0.00219722
ExecutionTime = 97.4383 s  ClockTime = 98 s

Time = 48s

smoothSolver:  Solving for Ux, Initial residual = 0.0249793, Final residual = 0.000869355, No Iterations 4
smoothSolver:  Solving for Uy, Initial residual = 0.0825026, Final residual = 0.00293558, No Iterations 4
smoothSolver:  Solving for Uz, Initial residual = 0.0752858, Final residual = 0.00256553, No Iterations 4
GAMG:  Solving for p, Initial residual = 0.000657367, Final residual = 3.4055e-06, No Iterations 4
time step continuity errors : sum local = 0.00764262, global = 0.00123458, cumulative = -0.0184635
smoothSolver:  Solving for nuTilda, Initial residual = 0.00938849, Final residual = 0.00026919, No Iterations 4
bounding nuTilda, min: -0.00519848 max: 0.0375892 average: 0.00223318
ExecutionTime = 100.844 s  ClockTime = 101 s

Time = 49s

smoothSolver:  Solving for Ux, Initial residual = 0.0249836, Final residual = 0.000862189, No Iterations 4
smoothSolver:  Solving for Uy, Initial residual = 0.0835748, Final residual = 0.00298922, No Iterations 4
smoothSolver:  Solving for Uz, Initial residual = 0.0759393, Final residual = 0.00261678, No Iterations 4
GAMG:  Solving for p, Initial residual = 0.000647539, Final residual = 6.07337e-06, No Iterations 3
time step continuity errors : sum local = 0.014172, global = -0.00229968, cumulative = -0.0207632
smoothSolver:  Solving for nuTilda, Initial residual = 0.00942253, Final residual = 0.000265896, No Iterations 4
bounding nuTilda, min: -0.0051809 max: 0.0375911 average: 0.00226798
ExecutionTime = 104.209 s  ClockTime = 104 s

Time = 50s

smoothSolver:  Solving for Ux, Initial residual = 0.0249719, Final residual = 0.000849893, No Iterations 4
smoothSolver:  Solving for Uy, Initial residual = 0.0851466, Final residual = 0.00305044, No Iterations 4
smoothSolver:  Solving for Uz, Initial residual = 0.0768271, Final residual = 0.00266873, No Iterations 4
GAMG:  Solving for p, Initial residual = 0.000629759, Final residual = 5.66304e-06, No Iterations 3
time step continuity errors : sum local = 0.0137515, global = -0.00176038, cumulative = -0.0225235
smoothSolver:  Solving for nuTilda, Initial residual = 0.0094597, Final residual = 0.000262521, No Iterations 4
bounding nuTilda, min: -0.00519879 max: 0.0375915 average: 0.00230325
ExecutionTime = 108.147 s  ClockTime = 108 s

Time = 51s

smoothSolver:  Solving for Ux, Initial residual = 0.0249359, Final residual = 0.0008278, No Iterations 4
smoothSolver:  Solving for Uy, Initial residual = 0.0872879, Final residual = 0.00313601, No Iterations 4
smoothSolver:  Solving for Uz, Initial residual = 0.078414, Final residual = 0.00273671, No Iterations 4
GAMG:  Solving for p, Initial residual = 0.000613962, Final residual = 5.47834e-06, No Iterations 3
time step continuity errors : sum local = 0.0139502, global = -0.00118606, cumulative = -0.0237096
smoothSolver:  Solving for nuTilda, Initial residual = 0.00950731, Final residual = 0.000259019, No Iterations 4
bounding nuTilda, min: -0.00518027 max: 0.0375947 average: 0.00233713
ExecutionTime = 110.881 s  ClockTime = 111 s

Time = 52s

smoothSolver:  Solving for Ux, Initial residual = 0.0248308, Final residual = 0.000795682, No Iterations 4
smoothSolver:  Solving for Uy, Initial residual = 0.0901053, Final residual = 0.00320005, No Iterations 4
smoothSolver:  Solving for Uz, Initial residual = 0.0802076, Final residual = 0.00276904, No Iterations 4
GAMG:  Solving for p, Initial residual = 0.000587958, Final residual = 4.94159e-06, No Iterations 3
time step continuity errors : sum local = 0.0133756, global = -0.000688417, cumulative = -0.024398
smoothSolver:  Solving for nuTilda, Initial residual = 0.00956603, Final residual = 0.000255355, No Iterations 4
bounding nuTilda, min: -0.00519855 max: 0.037597 average: 0.0023715
ExecutionTime = 113.264 s  ClockTime = 113 s

Time = 53s

smoothSolver:  Solving for Ux, Initial residual = 0.0248311, Final residual = 0.000767152, No Iterations 4
smoothSolver:  Solving for Uy, Initial residual = 0.092874, Final residual = 0.00326871, No Iterations 4
smoothSolver:  Solving for Uz, Initial residual = 0.0816918, Final residual = 0.0027349, No Iterations 4
GAMG:  Solving for p, Initial residual = 0.000566259, Final residual = 4.48324e-06, No Iterations 3
time step continuity errors : sum local = 0.0129369, global = 1.46846e-06, cumulative = -0.0243965
smoothSolver:  Solving for nuTilda, Initial residual = 0.00962644, Final residual = 0.000251639, No Iterations 4
bounding nuTilda, min: -0.00518035 max: 0.0375978 average: 0.00240453
ExecutionTime = 115.282 s  ClockTime = 115 s

Time = 54s

smoothSolver:  Solving for Ux, Initial residual = 0.0249204, Final residual = 0.000741999, No Iterations 4
smoothSolver:  Solving for Uy, Initial residual = 0.0949858, Final residual = 0.00327864, No Iterations 4
smoothSolver:  Solving for Uz, Initial residual = 0.0826376, Final residual = 0.0026625, No Iterations 4
GAMG:  Solving for p, Initial residual = 0.000541133, Final residual = 4.11923e-06, No Iterations 3
time step continuity errors : sum local = 0.012497, global = -0.000608578, cumulative = -0.0250051
smoothSolver:  Solving for nuTilda, Initial residual = 0.00967593, Final residual = 0.000247655, No Iterations 4
bounding nuTilda, min: -0.00519876 max: 0.0375978 average: 0.00243821
ExecutionTime = 116.82 s  ClockTime = 117 s

Time = 55s

smoothSolver:  Solving for Ux, Initial residual = 0.0249137, Final residual = 0.00072493, No Iterations 4
smoothSolver:  Solving for Uy, Initial residual = 0.096306, Final residual = 0.00319476, No Iterations 4
smoothSolver:  Solving for Uz, Initial residual = 0.0830973, Final residual = 0.00260667, No Iterations 4
GAMG:  Solving for p, Initial residual = 0.000529443, Final residual = 4.40731e-06, No Iterations 3
time step continuity errors : sum local = 0.0138849, global = 0.00022579, cumulative = -0.0247793
smoothSolver:  Solving for nuTilda, Initial residual = 0.0097197, Final residual = 0.000243669, No Iterations 4
bounding nuTilda, min: -0.00518036 max: 0.0376002 average: 0.00247095
ExecutionTime = 118.515 s  ClockTime = 119 s

Time = 56s

smoothSolver:  Solving for Ux, Initial residual = 0.0247442, Final residual = 0.000713124, No Iterations 4
smoothSolver:  Solving for Uy, Initial residual = 0.0965531, Final residual = 0.00308937, No Iterations 4
smoothSolver:  Solving for Uz, Initial residual = 0.0832799, Final residual = 0.00256129, No Iterations 4
GAMG:  Solving for p, Initial residual = 0.000521739, Final residual = 4.51231e-06, No Iterations 3
time step continuity errors : sum local = 0.0146865, global = 0.00179447, cumulative = -0.0229849
smoothSolver:  Solving for nuTilda, Initial residual = 0.00977476, Final residual = 0.00023951, No Iterations 4
bounding nuTilda, min: -0.00519872 max: 0.0376013 average: 0.00250468
ExecutionTime = 120.284 s  ClockTime = 120 s

Time = 57s

smoothSolver:  Solving for Ux, Initial residual = 0.0244904, Final residual = 0.0007158, No Iterations 4
smoothSolver:  Solving for Uy, Initial residual = 0.0961725, Final residual = 0.00304614, No Iterations 4
smoothSolver:  Solving for Uz, Initial residual = 0.0830424, Final residual = 0.00253231, No Iterations 4
GAMG:  Solving for p, Initial residual = 0.000510258, Final residual = 4.29502e-06, No Iterations 3
time step continuity errors : sum local = 0.0143515, global = 0.00306687, cumulative = -0.019918
smoothSolver:  Solving for nuTilda, Initial residual = 0.00982379, Final residual = 0.000235165, No Iterations 4
bounding nuTilda, min: -0.00518032 max: 0.0376015 average: 0.00253767
ExecutionTime = 121.793 s  ClockTime = 122 s

Time = 58s

smoothSolver:  Solving for Ux, Initial residual = 0.024178, Final residual = 0.00072514, No Iterations 4
smoothSolver:  Solving for Uy, Initial residual = 0.0955022, Final residual = 0.00299229, No Iterations 4
smoothSolver:  Solving for Uz, Initial residual = 0.0824064, Final residual = 0.0024978, No Iterations 4
GAMG:  Solving for p, Initial residual = 0.000496225, Final residual = 4.16833e-06, No Iterations 3
time step continuity errors : sum local = 0.0141173, global = 0.00342267, cumulative = -0.0164953
smoothSolver:  Solving for nuTilda, Initial residual = 0.00986408, Final residual = 0.000230557, No Iterations 4
bounding nuTilda, min: -0.00519876 max: 0.0376031 average: 0.00257175
ExecutionTime = 123.512 s  ClockTime = 124 s

Time = 59s

smoothSolver:  Solving for Ux, Initial residual = 0.023818, Final residual = 0.000736267, No Iterations 4
smoothSolver:  Solving for Uy, Initial residual = 0.094942, Final residual = 0.00296941, No Iterations 4
smoothSolver:  Solving for Uz, Initial residual = 0.0814453, Final residual = 0.00245076, No Iterations 4
GAMG:  Solving for p, Initial residual = 0.000478359, Final residual = 3.95174e-06, No Iterations 3
time step continuity errors : sum local = 0.0135234, global = 0.00239022, cumulative = -0.0141051
smoothSolver:  Solving for nuTilda, Initial residual = 0.00990345, Final residual = 0.000225825, No Iterations 4
bounding nuTilda, min: -0.00518043 max: 0.0376038 average: 0.00260525
ExecutionTime = 126.403 s  ClockTime = 127 s

Time = 60s

smoothSolver:  Solving for Ux, Initial residual = 0.0233894, Final residual = 0.000739092, No Iterations 4
smoothSolver:  Solving for Uy, Initial residual = 0.0944132, Final residual = 0.00297618, No Iterations 4
smoothSolver:  Solving for Uz, Initial residual = 0.0807169, Final residual = 0.00241002, No Iterations 4
GAMG:  Solving for p, Initial residual = 0.000472999, Final residual = 3.138e-06, No Iterations 3
time step continuity errors : sum local = 0.0108035, global = 0.00128413, cumulative = -0.012821
smoothSolver:  Solving for nuTilda, Initial residual = 0.00993009, Final residual = 0.000221132, No Iterations 4
bounding nuTilda, min: -0.00519871 max: 0.0376039 average: 0.00264015
ExecutionTime = 128.637 s  ClockTime = 129 s

Time = 61s

smoothSolver:  Solving for Ux, Initial residual = 0.0227817, Final residual = 0.000729534, No Iterations 4
smoothSolver:  Solving for Uy, Initial residual = 0.0942232, Final residual = 0.00301463, No Iterations 4
smoothSolver:  Solving for Uz, Initial residual = 0.0801305, Final residual = 0.00237789, No Iterations 4
GAMG:  Solving for p, Initial residual = 0.000462154, Final residual = 3.03491e-06, No Iterations 3
time step continuity errors : sum local = 0.0106532, global = -0.000105534, cumulative = -0.0129265
smoothSolver:  Solving for nuTilda, Initial residual = 0.00995588, Final residual = 0.000216507, No Iterations 4
bounding nuTilda, min: -0.00518035 max: 0.0376056 average: 0.00267471
ExecutionTime = 130.52 s  ClockTime = 131 s

Time = 62s

smoothSolver:  Solving for Ux, Initial residual = 0.0220569, Final residual = 0.000714965, No Iterations 4
smoothSolver:  Solving for Uy, Initial residual = 0.0944321, Final residual = 0.00305419, No Iterations 4
smoothSolver:  Solving for Uz, Initial residual = 0.0796115, Final residual = 0.00235972, No Iterations 4
GAMG:  Solving for p, Initial residual = 0.000444166, Final residual = 2.93314e-06, No Iterations 3
time step continuity errors : sum local = 0.0105765, global = -0.00101717, cumulative = -0.0139437
smoothSolver:  Solving for nuTilda, Initial residual = 0.00995438, Final residual = 0.000211812, No Iterations 4
bounding nuTilda, min: -0.00519871 max: 0.0376065 average: 0.00271083
ExecutionTime = 132.316 s  ClockTime = 133 s

Time = 63s

smoothSolver:  Solving for Ux, Initial residual = 0.021377, Final residual = 0.000700559, No Iterations 4
smoothSolver:  Solving for Uy, Initial residual = 0.0941293, Final residual = 0.00306144, No Iterations 4
smoothSolver:  Solving for Uz, Initial residual = 0.078887, Final residual = 0.0023363, No Iterations 4
GAMG:  Solving for p, Initial residual = 0.000418518, Final residual = 2.73818e-06, No Iterations 3
time step continuity errors : sum local = 0.0101907, global = -0.00124505, cumulative = -0.0151887
smoothSolver:  Solving for nuTilda, Initial residual = 0.00994799, Final residual = 0.000207179, No Iterations 4
bounding nuTilda, min: -0.00518033 max: 0.0376067 average: 0.00274667
ExecutionTime = 134.175 s  ClockTime = 134 s

Time = 64s

smoothSolver:  Solving for Ux, Initial residual = 0.0208272, Final residual = 0.000689026, No Iterations 4
smoothSolver:  Solving for Uy, Initial residual = 0.0939627, Final residual = 0.00307818, No Iterations 4
smoothSolver:  Solving for Uz, Initial residual = 0.0777984, Final residual = 0.0022977, No Iterations 4
GAMG:  Solving for p, Initial residual = 0.000389228, Final residual = 2.61735e-06, No Iterations 3
time step continuity errors : sum local = 0.0100936, global = -0.00102598, cumulative = -0.0162147
smoothSolver:  Solving for nuTilda, Initial residual = 0.00991749, Final residual = 0.000202567, No Iterations 4
bounding nuTilda, min: -0.0051987 max: 0.0376065 average: 0.00278403
ExecutionTime = 135.901 s  ClockTime = 136 s

Time = 65s

smoothSolver:  Solving for Ux, Initial residual = 0.0202926, Final residual = 0.000670072, No Iterations 4
smoothSolver:  Solving for Uy, Initial residual = 0.0940983, Final residual = 0.00311493, No Iterations 4
smoothSolver:  Solving for Uz, Initial residual = 0.0765584, Final residual = 0.00227826, No Iterations 4
GAMG:  Solving for p, Initial residual = 0.000359922, Final residual = 2.42256e-06, No Iterations 3
time step continuity errors : sum local = 0.00971245, global = -0.00113923, cumulative = -0.0173539
smoothSolver:  Solving for nuTilda, Initial residual = 0.00987484, Final residual = 0.000198061, No Iterations 4
bounding nuTilda, min: -0.0051803 max: 0.0376061 average: 0.00282115
ExecutionTime = 137.72 s  ClockTime = 138 s

Time = 66s

smoothSolver:  Solving for Ux, Initial residual = 0.0197611, Final residual = 0.000646328, No Iterations 4
smoothSolver:  Solving for Uy, Initial residual = 0.0946352, Final residual = 0.00316867, No Iterations 4
smoothSolver:  Solving for Uz, Initial residual = 0.0756317, Final residual = 0.00228154, No Iterations 4
GAMG:  Solving for p, Initial residual = 0.000334643, Final residual = 2.22561e-06, No Iterations 3
time step continuity errors : sum local = 0.00928814, global = -0.00099247, cumulative = -0.0183464
smoothSolver:  Solving for nuTilda, Initial residual = 0.00981914, Final residual = 0.000193486, No Iterations 4
bounding nuTilda, min: -0.00519871 max: 0.0376055 average: 0.00285987
ExecutionTime = 139.417 s  ClockTime = 140 s

Time = 67s

smoothSolver:  Solving for Ux, Initial residual = 0.019165, Final residual = 0.000624493, No Iterations 4
smoothSolver:  Solving for Uy, Initial residual = 0.0946565, Final residual = 0.00320194, No Iterations 4
smoothSolver:  Solving for Uz, Initial residual = 0.074662, Final residual = 0.0022691, No Iterations 4
GAMG:  Solving for p, Initial residual = 0.000308546, Final residual = 2.10354e-06, No Iterations 3
time step continuity errors : sum local = 0.00910976, global = -0.000600195, cumulative = -0.0189466
smoothSolver:  Solving for nuTilda, Initial residual = 0.00977138, Final residual = 0.000188957, No Iterations 4
bounding nuTilda, min: -0.00518033 max: 0.0376052 average: 0.00289848
ExecutionTime = 141.844 s  ClockTime = 142 s

Time = 68s

smoothSolver:  Solving for Ux, Initial residual = 0.0185918, Final residual = 0.000610527, No Iterations 4
smoothSolver:  Solving for Uy, Initial residual = 0.0937944, Final residual = 0.00318689, No Iterations 4
smoothSolver:  Solving for Uz, Initial residual = 0.0735774, Final residual = 0.00222867, No Iterations 4
GAMG:  Solving for p, Initial residual = 0.000288002, Final residual = 2.0122e-06, No Iterations 3
time step continuity errors : sum local = 0.00903466, global = -0.000285766, cumulative = -0.0192324
smoothSolver:  Solving for nuTilda, Initial residual = 0.0097125, Final residual = 0.00018435, No Iterations 4
bounding nuTilda, min: -0.0051987 max: 0.0376049 average: 0.00293869
ExecutionTime = 143.722 s  ClockTime = 144 s

Time = 69s

smoothSolver:  Solving for Ux, Initial residual = 0.0180814, Final residual = 0.000605886, No Iterations 4
smoothSolver:  Solving for Uy, Initial residual = 0.0918934, Final residual = 0.00312557, No Iterations 4
smoothSolver:  Solving for Uz, Initial residual = 0.0715906, Final residual = 0.00215314, No Iterations 4
GAMG:  Solving for p, Initial residual = 0.000268269, Final residual = 1.8955e-06, No Iterations 3
time step continuity errors : sum local = 0.00881194, global = -8.39561e-05, cumulative = -0.0193163
smoothSolver:  Solving for nuTilda, Initial residual = 0.00964677, Final residual = 0.000179752, No Iterations 4
bounding nuTilda, min: -0.00518035 max: 0.0376044 average: 0.0029787
ExecutionTime = 145.544 s  ClockTime = 146 s

Time = 70s

smoothSolver:  Solving for Ux, Initial residual = 0.0175804, Final residual = 0.000600923, No Iterations 4
smoothSolver:  Solving for Uy, Initial residual = 0.0899916, Final residual = 0.00309201, No Iterations 4
smoothSolver:  Solving for Uz, Initial residual = 0.0692561, Final residual = 0.00206623, No Iterations 4
GAMG:  Solving for p, Initial residual = 0.000250699, Final residual = 1.70201e-06, No Iterations 3
time step continuity errors : sum local = 0.00817073, global = 0.000122202, cumulative = -0.0191941
smoothSolver:  Solving for nuTilda, Initial residual = 0.00954945, Final residual = 0.000174849, No Iterations 4
bounding nuTilda, min: -0.0051987 max: 0.0376039 average: 0.00302026
ExecutionTime = 147.532 s  ClockTime = 148 s

Time = 71s

smoothSolver:  Solving for Ux, Initial residual = 0.0169913, Final residual = 0.000585337, No Iterations 4
smoothSolver:  Solving for Uy, Initial residual = 0.0880456, Final residual = 0.00313611, No Iterations 4
smoothSolver:  Solving for Uz, Initial residual = 0.0669529, Final residual = 0.00200712, No Iterations 4
GAMG:  Solving for p, Initial residual = 0.000236101, Final residual = 1.47245e-06, No Iterations 3
time step continuity errors : sum local = 0.00728017, global = 0.000568102, cumulative = -0.018626
smoothSolver:  Solving for nuTilda, Initial residual = 0.00944139, Final residual = 0.000169785, No Iterations 4
bounding nuTilda, min: -0.00518038 max: 0.0376035 average: 0.00306164
ExecutionTime = 149.722 s  ClockTime = 150 s

Time = 72s

smoothSolver:  Solving for Ux, Initial residual = 0.0163141, Final residual = 0.000555893, No Iterations 4
smoothSolver:  Solving for Uy, Initial residual = 0.0860434, Final residual = 0.0032394, No Iterations 4
smoothSolver:  Solving for Uz, Initial residual = 0.0650598, Final residual = 0.00198233, No Iterations 4
GAMG:  Solving for p, Initial residual = 0.000223309, Final residual = 1.35058e-06, No Iterations 3
time step continuity errors : sum local = 0.00685736, global = 0.00074019, cumulative = -0.0178858
smoothSolver:  Solving for nuTilda, Initial residual = 0.00931246, Final residual = 0.000164552, No Iterations 4
bounding nuTilda, min: -0.00519873 max: 0.0376031 average: 0.00310463
ExecutionTime = 151.465 s  ClockTime = 152 s

Time = 73s

smoothSolver:  Solving for Ux, Initial residual = 0.0156231, Final residual = 0.000519315, No Iterations 4
smoothSolver:  Solving for Uy, Initial residual = 0.0843888, Final residual = 0.0033548, No Iterations 4
smoothSolver:  Solving for Uz, Initial residual = 0.0636542, Final residual = 0.00197707, No Iterations 4
GAMG:  Solving for p, Initial residual = 0.000211172, Final residual = 1.3619e-06, No Iterations 3
time step continuity errors : sum local = 0.00708882, global = 0.000371869, cumulative = -0.017514
smoothSolver:  Solving for nuTilda, Initial residual = 0.00918843, Final residual = 0.000159276, No Iterations 4
bounding nuTilda, min: -0.00518039 max: 0.0376029 average: 0.00314748
ExecutionTime = 153.386 s  ClockTime = 154 s

Time = 74s

smoothSolver:  Solving for Ux, Initial residual = 0.0150068, Final residual = 0.000485562, No Iterations 4
smoothSolver:  Solving for Uy, Initial residual = 0.0830106, Final residual = 0.00335659, No Iterations 4
smoothSolver:  Solving for Uz, Initial residual = 0.06222, Final residual = 0.00196223, No Iterations 4
GAMG:  Solving for p, Initial residual = 0.000199353, Final residual = 1.38249e-06, No Iterations 3
time step continuity errors : sum local = 0.00737158, global = -0.000125723, cumulative = -0.0176397
smoothSolver:  Solving for nuTilda, Initial residual = 0.00906716, Final residual = 0.000153966, No Iterations 4
bounding nuTilda, min: -0.00519873 max: 0.0376028 average: 0.00319207
ExecutionTime = 155.267 s  ClockTime = 155 s

Time = 75s

smoothSolver:  Solving for Ux, Initial residual = 0.0144864, Final residual = 0.000453879, No Iterations 4
smoothSolver:  Solving for Uy, Initial residual = 0.0818715, Final residual = 0.00321877, No Iterations 4
smoothSolver:  Solving for Uz, Initial residual = 0.0608183, Final residual = 0.00193241, No Iterations 4
GAMG:  Solving for p, Initial residual = 0.000189938, Final residual = 1.37491e-06, No Iterations 3
time step continuity errors : sum local = 0.00751549, global = -0.000487561, cumulative = -0.0181272
smoothSolver:  Solving for nuTilda, Initial residual = 0.00895535, Final residual = 0.000148795, No Iterations 4
bounding nuTilda, min: -0.00518039 max: 0.0376026 average: 0.0032367
ExecutionTime = 156.761 s  ClockTime = 157 s

Time = 76s

smoothSolver:  Solving for Ux, Initial residual = 0.0139668, Final residual = 0.000423533, No Iterations 4
smoothSolver:  Solving for Uy, Initial residual = 0.0805436, Final residual = 0.00303561, No Iterations 4
smoothSolver:  Solving for Uz, Initial residual = 0.059534, Final residual = 0.0018909, No Iterations 4
GAMG:  Solving for p, Initial residual = 0.00018338, Final residual = 1.27129e-06, No Iterations 3
time step continuity errors : sum local = 0.00713264, global = -0.000452885, cumulative = -0.0185801
smoothSolver:  Solving for nuTilda, Initial residual = 0.00884405, Final residual = 0.000143683, No Iterations 4
bounding nuTilda, min: -0.0051987 max: 0.0376025 average: 0.00328332
ExecutionTime = 158.296 s  ClockTime = 159 s

Time = 77s

smoothSolver:  Solving for Ux, Initial residual = 0.0134981, Final residual = 0.000396433, No Iterations 4
smoothSolver:  Solving for Uy, Initial residual = 0.0787339, Final residual = 0.00287203, No Iterations 4
smoothSolver:  Solving for Uz, Initial residual = 0.0583165, Final residual = 0.00185, No Iterations 4
GAMG:  Solving for p, Initial residual = 0.000177759, Final residual = 1.10754e-06, No Iterations 3
time step continuity errors : sum local = 0.00638478, global = -0.000362318, cumulative = -0.0189425
smoothSolver:  Solving for nuTilda, Initial residual = 0.00874097, Final residual = 0.000138574, No Iterations 4
bounding nuTilda, min: -0.00518034 max: 0.0376025 average: 0.00333018
ExecutionTime = 159.956 s  ClockTime = 160 s

Time = 78s

smoothSolver:  Solving for Ux, Initial residual = 0.0131086, Final residual = 0.000376359, No Iterations 4
smoothSolver:  Solving for Uy, Initial residual = 0.0763915, Final residual = 0.00272907, No Iterations 4
smoothSolver:  Solving for Uz, Initial residual = 0.0570346, Final residual = 0.00181433, No Iterations 4
GAMG:  Solving for p, Initial residual = 0.000172519, Final residual = 9.92121e-07, No Iterations 3
time step continuity errors : sum local = 0.00586775, global = -0.000240392, cumulative = -0.0191828
smoothSolver:  Solving for nuTilda, Initial residual = 0.00865636, Final residual = 0.000133505, No Iterations 4
bounding nuTilda, min: -0.00519872 max: 0.0376024 average: 0.00337923
ExecutionTime = 161.677 s  ClockTime = 162 s

Time = 79s

smoothSolver:  Solving for Ux, Initial residual = 0.0128326, Final residual = 0.000371787, No Iterations 4
smoothSolver:  Solving for Uy, Initial residual = 0.0738756, Final residual = 0.00259745, No Iterations 4
smoothSolver:  Solving for Uz, Initial residual = 0.0554967, Final residual = 0.00176796, No Iterations 4
GAMG:  Solving for p, Initial residual = 0.000166488, Final residual = 9.41758e-07, No Iterations 3
time step continuity errors : sum local = 0.00570157, global = -0.000143181, cumulative = -0.019326
smoothSolver:  Solving for nuTilda, Initial residual = 0.00859073, Final residual = 0.000853407, No Iterations 2
bounding nuTilda, min: -0.00517985 max: 0.0376023 average: 0.00342462
ExecutionTime = 163.306 s  ClockTime = 164 s

Time = 80s

smoothSolver:  Solving for Ux, Initial residual = 0.0126438, Final residual = 0.000380405, No Iterations 4
smoothSolver:  Solving for Uy, Initial residual = 0.0716953, Final residual = 0.00247724, No Iterations 4
smoothSolver:  Solving for Uz, Initial residual = 0.0537241, Final residual = 0.00171593, No Iterations 4
GAMG:  Solving for p, Initial residual = 0.000159974, Final residual = 9.39403e-07, No Iterations 3
time step continuity errors : sum local = 0.0058105, global = -0.00024271, cumulative = -0.0195687
smoothSolver:  Solving for nuTilda, Initial residual = 0.00856243, Final residual = 0.0008407, No Iterations 2
bounding nuTilda, min: -0.00519678 max: 0.0376023 average: 0.00347159
ExecutionTime = 164.817 s  ClockTime = 165 s

Time = 81s

smoothSolver:  Solving for Ux, Initial residual = 0.0124266, Final residual = 0.000384962, No Iterations 4
smoothSolver:  Solving for Uy, Initial residual = 0.070058, Final residual = 0.00237291, No Iterations 4
smoothSolver:  Solving for Uz, Initial residual = 0.0518832, Final residual = 0.00164438, No Iterations 4
GAMG:  Solving for p, Initial residual = 0.000152843, Final residual = 9.23152e-07, No Iterations 3
time step continuity errors : sum local = 0.00582084, global = -0.000477627, cumulative = -0.0200464
smoothSolver:  Solving for nuTilda, Initial residual = 0.00855848, Final residual = 0.000827398, No Iterations 2
bounding nuTilda, min: -0.00514777 max: 0.0376023 average: 0.00351918
ExecutionTime = 166.396 s  ClockTime = 167 s

Time = 82s

smoothSolver:  Solving for Ux, Initial residual = 0.012156, Final residual = 0.000377753, No Iterations 4
smoothSolver:  Solving for Uy, Initial residual = 0.0692003, Final residual = 0.00235496, No Iterations 4
smoothSolver:  Solving for Uz, Initial residual = 0.0502931, Final residual = 0.00158814, No Iterations 4
GAMG:  Solving for p, Initial residual = 0.000143926, Final residual = 9.2685e-07, No Iterations 3
time step continuity errors : sum local = 0.00594319, global = -0.000557664, cumulative = -0.020604
smoothSolver:  Solving for nuTilda, Initial residual = 0.00856685, Final residual = 0.000814638, No Iterations 2
bounding nuTilda, min: -0.00519415 max: 0.0376023 average: 0.00356854
ExecutionTime = 168.014 s  ClockTime = 168 s

Time = 83s

smoothSolver:  Solving for Ux, Initial residual = 0.0118708, Final residual = 0.000362903, No Iterations 4
smoothSolver:  Solving for Uy, Initial residual = 0.0686884, Final residual = 0.00242951, No Iterations 4
smoothSolver:  Solving for Uz, Initial residual = 0.049113, Final residual = 0.00155659, No Iterations 4
GAMG:  Solving for p, Initial residual = 0.000135501, Final residual = 9.36108e-07, No Iterations 3
time step continuity errors : sum local = 0.00610727, global = -0.000297917, cumulative = -0.0209019
smoothSolver:  Solving for nuTilda, Initial residual = 0.00859018, Final residual = 0.000803225, No Iterations 2
bounding nuTilda, min: -0.00513596 max: 0.0376023 average: 0.00361865
ExecutionTime = 169.698 s  ClockTime = 170 s

Time = 84s

smoothSolver:  Solving for Ux, Initial residual = 0.0115997, Final residual = 0.000346853, No Iterations 4
smoothSolver:  Solving for Uy, Initial residual = 0.0680673, Final residual = 0.00248125, No Iterations 4
smoothSolver:  Solving for Uz, Initial residual = 0.0481467, Final residual = 0.00152716, No Iterations 4
GAMG:  Solving for p, Initial residual = 0.00012736, Final residual = 1.02271e-06, No Iterations 3
time step continuity errors : sum local = 0.00677177, global = 0.000460353, cumulative = -0.0204416
smoothSolver:  Solving for nuTilda, Initial residual = 0.00861581, Final residual = 0.000792655, No Iterations 2
bounding nuTilda, min: -0.00519274 max: 0.0376022 average: 0.0036704
ExecutionTime = 171.565 s  ClockTime = 172 s

Time = 85s

smoothSolver:  Solving for Ux, Initial residual = 0.0113316, Final residual = 0.000333474, No Iterations 4
smoothSolver:  Solving for Uy, Initial residual = 0.0674809, Final residual = 0.00242858, No Iterations 4
smoothSolver:  Solving for Uz, Initial residual = 0.0471348, Final residual = 0.00148464, No Iterations 4
GAMG:  Solving for p, Initial residual = 0.000119673, Final residual = 8.85191e-07, No Iterations 3
time step continuity errors : sum local = 0.00597233, global = 0.000354299, cumulative = -0.0200873
smoothSolver:  Solving for nuTilda, Initial residual = 0.00864662, Final residual = 0.0007827, No Iterations 2
bounding nuTilda, min: -0.00514779 max: 0.0376022 average: 0.00372274
ExecutionTime = 173.057 s  ClockTime = 173 s

Time = 86s

smoothSolver:  Solving for Ux, Initial residual = 0.0110575, Final residual = 0.000319908, No Iterations 4
smoothSolver:  Solving for Uy, Initial residual = 0.0668875, Final residual = 0.00231159, No Iterations 4
smoothSolver:  Solving for Uz, Initial residual = 0.0459685, Final residual = 0.00144112, No Iterations 4
GAMG:  Solving for p, Initial residual = 0.000112843, Final residual = 7.03987e-07, No Iterations 3
time step continuity errors : sum local = 0.00481818, global = -6.64898e-05, cumulative = -0.0201538
smoothSolver:  Solving for nuTilda, Initial residual = 0.0086692, Final residual = 0.000773473, No Iterations 2
bounding nuTilda, min: -0.00519378 max: 0.0376022 average: 0.00377652
ExecutionTime = 174.544 s  ClockTime = 175 s

Time = 87s

smoothSolver:  Solving for Ux, Initial residual = 0.0107818, Final residual = 0.000306336, No Iterations 4
smoothSolver:  Solving for Uy, Initial residual = 0.0662023, Final residual = 0.00220153, No Iterations 4
smoothSolver:  Solving for Uz, Initial residual = 0.0448159, Final residual = 0.00140611, No Iterations 4
GAMG:  Solving for p, Initial residual = 0.000107161, Final residual = 6.43195e-07, No Iterations 3
time step continuity errors : sum local = 0.004429, global = 0.000408796, cumulative = -0.019745
smoothSolver:  Solving for nuTilda, Initial residual = 0.00868269, Final residual = 0.000764299, No Iterations 2
bounding nuTilda, min: -0.00513618 max: 0.0376022 average: 0.00383095
ExecutionTime = 176.031 s  ClockTime = 176 s

Time = 88s

smoothSolver:  Solving for Ux, Initial residual = 0.0105321, Final residual = 0.000295376, No Iterations 4
smoothSolver:  Solving for Uy, Initial residual = 0.0652296, Final residual = 0.00211372, No Iterations 4
smoothSolver:  Solving for Uz, Initial residual = 0.0440452, Final residual = 0.00138467, No Iterations 4
GAMG:  Solving for p, Initial residual = 0.000103085, Final residual = 6.45102e-07, No Iterations 3
time step continuity errors : sum local = 0.00446969, global = 0.000652824, cumulative = -0.0190922
smoothSolver:  Solving for nuTilda, Initial residual = 0.00868339, Final residual = 0.000754809, No Iterations 2
bounding nuTilda, min: -0.0051917 max: 0.0376021 average: 0.0038869
ExecutionTime = 177.518 s  ClockTime = 178 s

Time = 89s

smoothSolver:  Solving for Ux, Initial residual = 0.0102986, Final residual = 0.000289308, No Iterations 4
smoothSolver:  Solving for Uy, Initial residual = 0.0639921, Final residual = 0.00203003, No Iterations 4
smoothSolver:  Solving for Uz, Initial residual = 0.0434446, Final residual = 0.00135223, No Iterations 4
GAMG:  Solving for p, Initial residual = 9.99752e-05, Final residual = 7.63015e-07, No Iterations 3
time step continuity errors : sum local = 0.00530979, global = 0.000335683, cumulative = -0.0187565
smoothSolver:  Solving for nuTilda, Initial residual = 0.00867471, Final residual = 0.000745705, No Iterations 2
bounding nuTilda, min: -0.00514732 max: 0.0376021 average: 0.00394334
ExecutionTime = 179.087 s  ClockTime = 179 s

Time = 90s

smoothSolver:  Solving for Ux, Initial residual = 0.0101156, Final residual = 0.000286726, No Iterations 4
smoothSolver:  Solving for Uy, Initial residual = 0.0625293, Final residual = 0.00196238, No Iterations 4
smoothSolver:  Solving for Uz, Initial residual = 0.0427469, Final residual = 0.00131853, No Iterations 4
GAMG:  Solving for p, Initial residual = 9.71543e-05, Final residual = 6.92304e-07, No Iterations 3
time step continuity errors : sum local = 0.00481199, global = 0.000390497, cumulative = -0.018366
smoothSolver:  Solving for nuTilda, Initial residual = 0.00865686, Final residual = 0.000737407, No Iterations 2
bounding nuTilda, min: -0.00519347 max: 0.0376021 average: 0.00400123
ExecutionTime = 180.563 s  ClockTime = 181 s

Time = 91s

smoothSolver:  Solving for Ux, Initial residual = 0.00989494, Final residual = 0.00028297, No Iterations 4
smoothSolver:  Solving for Uy, Initial residual = 0.0609455, Final residual = 0.00189862, No Iterations 4
smoothSolver:  Solving for Uz, Initial residual = 0.0418646, Final residual = 0.00128355, No Iterations 4
GAMG:  Solving for p, Initial residual = 9.43975e-05, Final residual = 5.67469e-07, No Iterations 3
time step continuity errors : sum local = 0.00395176, global = 0.000498599, cumulative = -0.0178674
smoothSolver:  Solving for nuTilda, Initial residual = 0.0086448, Final residual = 0.000729819, No Iterations 2
bounding nuTilda, min: -0.00513556 max: 0.0376021 average: 0.00405945
ExecutionTime = 182.143 s  ClockTime = 182 s

Time = 92s

smoothSolver:  Solving for Ux, Initial residual = 0.00963912, Final residual = 0.000278053, No Iterations 4
smoothSolver:  Solving for Uy, Initial residual = 0.0596076, Final residual = 0.00181633, No Iterations 4
smoothSolver:  Solving for Uz, Initial residual = 0.0409419, Final residual = 0.0012598, No Iterations 4
GAMG:  Solving for p, Initial residual = 9.06863e-05, Final residual = 5.82589e-07, No Iterations 3
time step continuity errors : sum local = 0.00409187, global = -4.87568e-05, cumulative = -0.0179161
smoothSolver:  Solving for nuTilda, Initial residual = 0.008623, Final residual = 0.000722505, No Iterations 2
bounding nuTilda, min: -0.00519153 max: 0.037602 average: 0.00411897
ExecutionTime = 183.665 s  ClockTime = 184 s

Time = 93s

smoothSolver:  Solving for Ux, Initial residual = 0.00935525, Final residual = 0.000273633, No Iterations 4
smoothSolver:  Solving for Uy, Initial residual = 0.0586208, Final residual = 0.00173963, No Iterations 4
smoothSolver:  Solving for Uz, Initial residual = 0.0399709, Final residual = 0.0012301, No Iterations 4
GAMG:  Solving for p, Initial residual = 8.7119e-05, Final residual = 6.099e-07, No Iterations 3
time step continuity errors : sum local = 0.0043331, global = -0.000248041, cumulative = -0.0181642
smoothSolver:  Solving for nuTilda, Initial residual = 0.00859531, Final residual = 0.000715294, No Iterations 2
bounding nuTilda, min: -0.00514685 max: 0.037602 average: 0.00417901
ExecutionTime = 185.293 s  ClockTime = 186 s

Time = 94s

smoothSolver:  Solving for Ux, Initial residual = 0.00903965, Final residual = 0.000265579, No Iterations 4
smoothSolver:  Solving for Uy, Initial residual = 0.0577791, Final residual = 0.00169301, No Iterations 4
smoothSolver:  Solving for Uz, Initial residual = 0.0389333, Final residual = 0.00119899, No Iterations 4
GAMG:  Solving for p, Initial residual = 8.28449e-05, Final residual = 6.83353e-07, No Iterations 3
time step continuity errors : sum local = 0.00494001, global = 1.90042e-05, cumulative = -0.0181452
smoothSolver:  Solving for nuTilda, Initial residual = 0.00855422, Final residual = 0.000708032, No Iterations 2
bounding nuTilda, min: -0.00519324 max: 0.037602 average: 0.00424048
ExecutionTime = 186.882 s  ClockTime = 187 s

Time = 95s

smoothSolver:  Solving for Ux, Initial residual = 0.00871963, Final residual = 0.000258296, No Iterations 4
smoothSolver:  Solving for Uy, Initial residual = 0.0568695, Final residual = 0.00167959, No Iterations 4
smoothSolver:  Solving for Uz, Initial residual = 0.0378299, Final residual = 0.00115791, No Iterations 4
GAMG:  Solving for p, Initial residual = 7.91225e-05, Final residual = 5.88544e-07, No Iterations 3
time step continuity errors : sum local = 0.00436479, global = 2.93629e-05, cumulative = -0.0181158
smoothSolver:  Solving for nuTilda, Initial residual = 0.00850635, Final residual = 0.00070076, No Iterations 2
bounding nuTilda, min: -0.00513527 max: 0.0376019 average: 0.0043024
ExecutionTime = 188.461 s  ClockTime = 189 s

Time = 96s

smoothSolver:  Solving for Ux, Initial residual = 0.00841279, Final residual = 0.000248386, No Iterations 4
smoothSolver:  Solving for Uy, Initial residual = 0.0556294, Final residual = 0.00165913, No Iterations 4
smoothSolver:  Solving for Uz, Initial residual = 0.0367312, Final residual = 0.00111612, No Iterations 4
GAMG:  Solving for p, Initial residual = 7.72878e-05, Final residual = 4.19591e-07, No Iterations 3
time step continuity errors : sum local = 0.00318493, global = -0.00039873, cumulative = -0.0185145
smoothSolver:  Solving for nuTilda, Initial residual = 0.00845116, Final residual = 0.000693948, No Iterations 2
bounding nuTilda, min: -0.00519144 max: 0.0376019 average: 0.00436597
ExecutionTime = 189.96 s  ClockTime = 190 s

Time = 97s

smoothSolver:  Solving for Ux, Initial residual = 0.00811481, Final residual = 0.000235338, No Iterations 4
smoothSolver:  Solving for Uy, Initial residual = 0.0542271, Final residual = 0.00162937, No Iterations 4
smoothSolver:  Solving for Uz, Initial residual = 0.0357436, Final residual = 0.00107742, No Iterations 4
GAMG:  Solving for p, Initial residual = 7.53337e-05, Final residual = 4.05415e-07, No Iterations 3
time step continuity errors : sum local = 0.00313146, global = -0.000124337, cumulative = -0.0186389
smoothSolver:  Solving for nuTilda, Initial residual = 0.00840551, Final residual = 0.000688112, No Iterations 2
bounding nuTilda, min: -0.00514677 max: 0.0376019 average: 0.00443014
ExecutionTime = 191.624 s  ClockTime = 192 s

Time = 98s

smoothSolver:  Solving for Ux, Initial residual = 0.00781605, Final residual = 0.000221445, No Iterations 4
smoothSolver:  Solving for Uy, Initial residual = 0.0530081, Final residual = 0.0016076, No Iterations 4
smoothSolver:  Solving for Uz, Initial residual = 0.0348983, Final residual = 0.00103696, No Iterations 4
GAMG:  Solving for p, Initial residual = 7.29385e-05, Final residual = 4.04339e-07, No Iterations 3
time step continuity errors : sum local = 0.00317584, global = 0.00017135, cumulative = -0.0184675
smoothSolver:  Solving for nuTilda, Initial residual = 0.00836352, Final residual = 0.000682769, No Iterations 2
bounding nuTilda, min: -0.00519321 max: 0.0376019 average: 0.00449582
ExecutionTime = 193.412 s  ClockTime = 194 s

Time = 99s

smoothSolver:  Solving for Ux, Initial residual = 0.0075273, Final residual = 0.000209325, No Iterations 4
smoothSolver:  Solving for Uy, Initial residual = 0.0518789, Final residual = 0.00160181, No Iterations 4
smoothSolver:  Solving for Uz, Initial residual = 0.0340815, Final residual = 0.00100816, No Iterations 4
GAMG:  Solving for p, Initial residual = 7.03327e-05, Final residual = 4.04491e-07, No Iterations 3
time step continuity errors : sum local = 0.00322143, global = 0.00034691, cumulative = -0.0181206
smoothSolver:  Solving for nuTilda, Initial residual = 0.00833264, Final residual = 0.000678198, No Iterations 2
bounding nuTilda, min: -0.00513526 max: 0.0376019 average: 0.00456216
ExecutionTime = 195.209 s  ClockTime = 195 s

Time = 100s

smoothSolver:  Solving for Ux, Initial residual = 0.00727225, Final residual = 0.000201801, No Iterations 4
smoothSolver:  Solving for Uy, Initial residual = 0.0506891, Final residual = 0.00158608, No Iterations 4
smoothSolver:  Solving for Uz, Initial residual = 0.033234, Final residual = 0.000977803, No Iterations 4
GAMG:  Solving for p, Initial residual = 6.84712e-05, Final residual = 4.38795e-07, No Iterations 3
time step continuity errors : sum local = 0.00353591, global = 0.000383987, cumulative = -0.0177366
smoothSolver:  Solving for nuTilda, Initial residual = 0.00831293, Final residual = 0.00067378, No Iterations 2
bounding nuTilda, min: -0.00519145 max: 0.0376019 average: 0.00463012
ExecutionTime = 196.898 s  ClockTime = 197 s

Time = 101s

smoothSolver:  Solving for Ux, Initial residual = 0.0070499, Final residual = 0.000198937, No Iterations 4
smoothSolver:  Solving for Uy, Initial residual = 0.0493469, Final residual = 0.0015345, No Iterations 4
smoothSolver:  Solving for Uz, Initial residual = 0.0325094, Final residual = 0.000954037, No Iterations 4
GAMG:  Solving for p, Initial residual = 6.57184e-05, Final residual = 4.83235e-07, No Iterations 3
time step continuity errors : sum local = 0.00392574, global = 0.000204442, cumulative = -0.0175322
smoothSolver:  Solving for nuTilda, Initial residual = 0.00829625, Final residual = 0.0006702, No Iterations 2
bounding nuTilda, min: -0.0051468 max: 0.0376019 average: 0.00469873
ExecutionTime = 198.413 s  ClockTime = 199 s

Time = 102s

smoothSolver:  Solving for Ux, Initial residual = 0.00686859, Final residual = 0.000195174, No Iterations 4
smoothSolver:  Solving for Uy, Initial residual = 0.0480895, Final residual = 0.00144976, No Iterations 4
smoothSolver:  Solving for Uz, Initial residual = 0.0320702, Final residual = 0.000942496, No Iterations 4
GAMG:  Solving for p, Initial residual = 6.30056e-05, Final residual = 4.46787e-07, No Iterations 3
time step continuity errors : sum local = 0.00364486, global = 0.00022864, cumulative = -0.0173036
smoothSolver:  Solving for nuTilda, Initial residual = 0.00828996, Final residual = 0.000667155, No Iterations 2
bounding nuTilda, min: -0.00519316 max: 0.0376019 average: 0.00476906
ExecutionTime = 200.038 s  ClockTime = 200 s

Time = 103s

smoothSolver:  Solving for Ux, Initial residual = 0.00667631, Final residual = 0.000187208, No Iterations 4
smoothSolver:  Solving for Uy, Initial residual = 0.0469824, Final residual = 0.00138083, No Iterations 4
smoothSolver:  Solving for Uz, Initial residual = 0.0316569, Final residual = 0.000940142, No Iterations 4
GAMG:  Solving for p, Initial residual = 6.06627e-05, Final residual = 3.84404e-07, No Iterations 3
time step continuity errors : sum local = 0.00315424, global = 0.000351513, cumulative = -0.016952
smoothSolver:  Solving for nuTilda, Initial residual = 0.00828456, Final residual = 0.00066479, No Iterations 2
bounding nuTilda, min: -0.0051352 max: 0.0376019 average: 0.00484008
ExecutionTime = 201.963 s  ClockTime = 202 s

Time = 104s

[...]

smoothSolver:  Solving for Ux, Initial residual = 1.86913e-05, Final residual = 8.45071e-07, No Iterations 4
smoothSolver:  Solving for Uy, Initial residual = 0.000143414, Final residual = 6.7101e-06, No Iterations 4
smoothSolver:  Solving for Uz, Initial residual = 9.48867e-05, Final residual = 3.75337e-06, No Iterations 4
GAMG:  Solving for p, Initial residual = 6.96147e-07, Final residual = 7.69425e-08, No Iterations 1
time step continuity errors : sum local = 0.000344953, global = -0.000193993, cumulative = -0.0526376
smoothSolver:  Solving for nuTilda, Initial residual = 0.00022848, Final residual = 1.88498e-05, No Iterations 2
bounding nuTilda, min: -0.00513024 max: 0.171158 average: 0.0166575
ExecutionTime = 868.688 s  ClockTime = 869 s

Time = 476s

smoothSolver:  Solving for Ux, Initial residual = 1.86169e-05, Final residual = 8.4092e-07, No Iterations 4
smoothSolver:  Solving for Uy, Initial residual = 0.000143045, Final residual = 6.71175e-06, No Iterations 4
smoothSolver:  Solving for Uz, Initial residual = 9.43134e-05, Final residual = 3.72193e-06, No Iterations 4
GAMG:  Solving for p, Initial residual = 6.94566e-07, Final residual = 7.64066e-08, No Iterations 1
time step continuity errors : sum local = 0.000342107, global = -0.000193462, cumulative = -0.0528311
smoothSolver:  Solving for nuTilda, Initial residual = 0.000227635, Final residual = 1.87862e-05, No Iterations 2
bounding nuTilda, min: -0.00519825 max: 0.171286 average: 0.0166612
ExecutionTime = 871.092 s  ClockTime = 871 s

Time = 477s

smoothSolver:  Solving for Ux, Initial residual = 1.85343e-05, Final residual = 8.36197e-07, No Iterations 4
smoothSolver:  Solving for Uy, Initial residual = 0.000142528, Final residual = 6.70821e-06, No Iterations 4
smoothSolver:  Solving for Uz, Initial residual = 9.35901e-05, Final residual = 3.68387e-06, No Iterations 4
GAMG:  Solving for p, Initial residual = 6.96519e-07, Final residual = 7.65152e-08, No Iterations 1
time step continuity errors : sum local = 0.000342152, global = -0.000193819, cumulative = -0.0530249
smoothSolver:  Solving for nuTilda, Initial residual = 0.000226942, Final residual = 1.87209e-05, No Iterations 2
bounding nuTilda, min: -0.00514211 max: 0.171413 average: 0.0166644
ExecutionTime = 872.798 s  ClockTime = 873 s

Time = 478s

smoothSolver:  Solving for Ux, Initial residual = 1.84822e-05, Final residual = 8.32204e-07, No Iterations 4
smoothSolver:  Solving for Uy, Initial residual = 0.000142239, Final residual = 6.71186e-06, No Iterations 4
smoothSolver:  Solving for Uz, Initial residual = 9.3033e-05, Final residual = 3.64785e-06, No Iterations 4
GAMG:  Solving for p, Initial residual = 6.95584e-07, Final residual = 7.63253e-08, No Iterations 1
time step continuity errors : sum local = 0.000340862, global = -0.000194867, cumulative = -0.0532198
smoothSolver:  Solving for nuTilda, Initial residual = 0.000226304, Final residual = 1.86671e-05, No Iterations 2
bounding nuTilda, min: -0.00519934 max: 0.17154 average: 0.0166681
ExecutionTime = 874.254 s  ClockTime = 875 s

Time = 479s

smoothSolver:  Solving for Ux, Initial residual = 1.84176e-05, Final residual = 8.27662e-07, No Iterations 4
smoothSolver:  Solving for Uy, Initial residual = 0.000142008, Final residual = 6.71061e-06, No Iterations 4
smoothSolver:  Solving for Uz, Initial residual = 9.24802e-05, Final residual = 3.61016e-06, No Iterations 4
GAMG:  Solving for p, Initial residual = 6.9845e-07, Final residual = 7.61361e-08, No Iterations 1
time step continuity errors : sum local = 0.000339575, global = -0.000196388, cumulative = -0.0534161
smoothSolver:  Solving for nuTilda, Initial residual = 0.000225687, Final residual = 1.86143e-05, No Iterations 2
bounding nuTilda, min: -0.00513017 max: 0.171665 average: 0.0166713
ExecutionTime = 875.9 s  ClockTime = 876 s

Time = 480s

smoothSolver:  Solving for Ux, Initial residual = 1.83524e-05, Final residual = 8.21372e-07, No Iterations 4
smoothSolver:  Solving for Uy, Initial residual = 0.000141705, Final residual = 6.69445e-06, No Iterations 4
smoothSolver:  Solving for Uz, Initial residual = 9.19434e-05, Final residual = 3.56911e-06, No Iterations 4
GAMG:  Solving for p, Initial residual = 6.97092e-07, Final residual = 7.56369e-08, No Iterations 1
time step continuity errors : sum local = 0.000336911, global = -0.000198511, cumulative = -0.0536147
smoothSolver:  Solving for nuTilda, Initial residual = 0.000225126, Final residual = 1.85683e-05, No Iterations 2
bounding nuTilda, min: -0.00519826 max: 0.17179 average: 0.0166751
ExecutionTime = 877.772 s  ClockTime = 878 s

Time = 481s

smoothSolver:  Solving for Ux, Initial residual = 1.83049e-05, Final residual = 8.16979e-07, No Iterations 4
smoothSolver:  Solving for Uy, Initial residual = 0.000141372, Final residual = 6.66745e-06, No Iterations 4
smoothSolver:  Solving for Uz, Initial residual = 9.13493e-05, Final residual = 3.53175e-06, No Iterations 4
GAMG:  Solving for p, Initial residual = 7.00051e-07, Final residual = 7.60027e-08, No Iterations 1
time step continuity errors : sum local = 0.000338099, global = -0.000201117, cumulative = -0.0538158
smoothSolver:  Solving for nuTilda, Initial residual = 0.000224643, Final residual = 1.85186e-05, No Iterations 2
bounding nuTilda, min: -0.00514213 max: 0.171913 average: 0.0166783
ExecutionTime = 879.775 s  ClockTime = 880 s

Time = 482s

smoothSolver:  Solving for Ux, Initial residual = 1.82464e-05, Final residual = 8.12154e-07, No Iterations 4
smoothSolver:  Solving for Uy, Initial residual = 0.000141166, Final residual = 6.6504e-06, No Iterations 4
smoothSolver:  Solving for Uz, Initial residual = 9.08737e-05, Final residual = 3.5105e-06, No Iterations 4
GAMG:  Solving for p, Initial residual = 6.9701e-07, Final residual = 7.57741e-08, No Iterations 1
time step continuity errors : sum local = 0.000336641, global = -0.000204057, cumulative = -0.0540198
smoothSolver:  Solving for nuTilda, Initial residual = 0.000224109, Final residual = 1.84779e-05, No Iterations 2
bounding nuTilda, min: -0.00519923 max: 0.172036 average: 0.016682
ExecutionTime = 881.393 s  ClockTime = 882 s

Time = 483s

smoothSolver:  Solving for Ux, Initial residual = 1.8176e-05, Final residual = 8.07715e-07, No Iterations 4
smoothSolver:  Solving for Uy, Initial residual = 0.000140826, Final residual = 6.62072e-06, No Iterations 4
smoothSolver:  Solving for Uz, Initial residual = 9.03501e-05, Final residual = 3.49443e-06, No Iterations 4
GAMG:  Solving for p, Initial residual = 6.97938e-07, Final residual = 7.6239e-08, No Iterations 1
time step continuity errors : sum local = 0.00033826, global = -0.000206814, cumulative = -0.0542266
smoothSolver:  Solving for nuTilda, Initial residual = 0.000223605, Final residual = 1.84276e-05, No Iterations 2
bounding nuTilda, min: -0.00513037 max: 0.172158 average: 0.0166853
ExecutionTime = 882.82 s  ClockTime = 883 s

Time = 484s

smoothSolver:  Solving for Ux, Initial residual = 1.81267e-05, Final residual = 8.03245e-07, No Iterations 4
smoothSolver:  Solving for Uy, Initial residual = 0.000140881, Final residual = 6.60458e-06, No Iterations 4
smoothSolver:  Solving for Uz, Initial residual = 9.00423e-05, Final residual = 3.49026e-06, No Iterations 4
GAMG:  Solving for p, Initial residual = 6.95156e-07, Final residual = 7.6412e-08, No Iterations 1
time step continuity errors : sum local = 0.000338581, global = -0.000209645, cumulative = -0.0544363
smoothSolver:  Solving for nuTilda, Initial residual = 0.00022305, Final residual = 1.83865e-05, No Iterations 2
bounding nuTilda, min: -0.00519799 max: 0.172279 average: 0.0166891
ExecutionTime = 884.377 s  ClockTime = 885 s

Time = 485s

smoothSolver:  Solving for Ux, Initial residual = 1.80859e-05, Final residual = 7.99233e-07, No Iterations 4
smoothSolver:  Solving for Uy, Initial residual = 0.000141064, Final residual = 6.59392e-06, No Iterations 4
smoothSolver:  Solving for Uz, Initial residual = 8.99195e-05, Final residual = 3.48887e-06, No Iterations 4
GAMG:  Solving for p, Initial residual = 6.96411e-07, Final residual = 7.68038e-08, No Iterations 1
time step continuity errors : sum local = 0.000339865, global = -0.000212562, cumulative = -0.0546489
smoothSolver:  Solving for nuTilda, Initial residual = 0.000222465, Final residual = 1.83353e-05, No Iterations 2
bounding nuTilda, min: -0.00514243 max: 0.172399 average: 0.0166924
ExecutionTime = 885.722 s  ClockTime = 886 s

Time = 486s

smoothSolver:  Solving for Ux, Initial residual = 1.80314e-05, Final residual = 7.96386e-07, No Iterations 4
smoothSolver:  Solving for Uy, Initial residual = 0.000141153, Final residual = 6.59297e-06, No Iterations 4
smoothSolver:  Solving for Uz, Initial residual = 8.98407e-05, Final residual = 3.4907e-06, No Iterations 4
GAMG:  Solving for p, Initial residual = 6.93694e-07, Final residual = 7.68336e-08, No Iterations 1
time step continuity errors : sum local = 0.000339542, global = -0.000215591, cumulative = -0.0548644
smoothSolver:  Solving for nuTilda, Initial residual = 0.000221847, Final residual = 1.82895e-05, No Iterations 2
bounding nuTilda, min: -0.00519892 max: 0.172518 average: 0.0166963
ExecutionTime = 887.02 s  ClockTime = 887 s

Time = 487s

smoothSolver:  Solving for Ux, Initial residual = 1.80078e-05, Final residual = 7.97524e-07, No Iterations 4
smoothSolver:  Solving for Uy, Initial residual = 0.000141172, Final residual = 6.59972e-06, No Iterations 4
smoothSolver:  Solving for Uz, Initial residual = 8.96603e-05, Final residual = 3.49583e-06, No Iterations 4
GAMG:  Solving for p, Initial residual = 6.96144e-07, Final residual = 7.76035e-08, No Iterations 1
time step continuity errors : sum local = 0.000342484, global = -0.000217918, cumulative = -0.0550824
smoothSolver:  Solving for nuTilda, Initial residual = 0.00022123, Final residual = 1.82339e-05, No Iterations 2
bounding nuTilda, min: -0.00513066 max: 0.172637 average: 0.0166996
ExecutionTime = 888.435 s  ClockTime = 889 s

Time = 488s

smoothSolver:  Solving for Ux, Initial residual = 1.79748e-05, Final residual = 7.98892e-07, No Iterations 4
smoothSolver:  Solving for Uy, Initial residual = 0.000141406, Final residual = 6.61442e-06, No Iterations 4
smoothSolver:  Solving for Uz, Initial residual = 8.97231e-05, Final residual = 3.50481e-06, No Iterations 4
GAMG:  Solving for p, Initial residual = 6.92809e-07, Final residual = 7.75673e-08, No Iterations 1
time step continuity errors : sum local = 0.000341864, global = -0.000219198, cumulative = -0.0553016
smoothSolver:  Solving for nuTilda, Initial residual = 0.000220525, Final residual = 1.81803e-05, No Iterations 2
bounding nuTilda, min: -0.00519778 max: 0.172755 average: 0.0167034
ExecutionTime = 889.77 s  ClockTime = 890 s

Time = 489s

smoothSolver:  Solving for Ux, Initial residual = 1.79228e-05, Final residual = 8.00863e-07, No Iterations 4
smoothSolver:  Solving for Uy, Initial residual = 0.000141428, Final residual = 6.60892e-06, No Iterations 4
smoothSolver:  Solving for Uz, Initial residual = 8.97582e-05, Final residual = 3.50991e-06, No Iterations 4
GAMG:  Solving for p, Initial residual = 6.93201e-07, Final residual = 7.8158e-08, No Iterations 1
time step continuity errors : sum local = 0.000344007, global = -0.000219417, cumulative = -0.055521
smoothSolver:  Solving for nuTilda, Initial residual = 0.000219798, Final residual = 1.81113e-05, No Iterations 2
bounding nuTilda, min: -0.00514263 max: 0.172872 average: 0.0167068
ExecutionTime = 891.267 s  ClockTime = 892 s

Time = 490s

smoothSolver:  Solving for Ux, Initial residual = 1.78939e-05, Final residual = 8.04002e-07, No Iterations 4
smoothSolver:  Solving for Uy, Initial residual = 0.000141483, Final residual = 6.59989e-06, No Iterations 4
smoothSolver:  Solving for Uz, Initial residual = 8.98135e-05, Final residual = 3.52058e-06, No Iterations 4
GAMG:  Solving for p, Initial residual = 6.9085e-07, Final residual = 7.86547e-08, No Iterations 1
time step continuity errors : sum local = 0.000345731, global = -0.000219962, cumulative = -0.0557409
smoothSolver:  Solving for nuTilda, Initial residual = 0.000219035, Final residual = 1.80461e-05, No Iterations 2
bounding nuTilda, min: -0.00519876 max: 0.172988 average: 0.0167107
ExecutionTime = 892.716 s  ClockTime = 893 s

Time = 491s

smoothSolver:  Solving for Ux, Initial residual = 1.78677e-05, Final residual = 8.0768e-07, No Iterations 4
smoothSolver:  Solving for Uy, Initial residual = 0.000141479, Final residual = 6.58683e-06, No Iterations 4
smoothSolver:  Solving for Uz, Initial residual = 8.99305e-05, Final residual = 3.52828e-06, No Iterations 4
GAMG:  Solving for p, Initial residual = 6.93526e-07, Final residual = 7.9057e-08, No Iterations 1
time step continuity errors : sum local = 0.000347032, global = -0.000219257, cumulative = -0.0559602
smoothSolver:  Solving for nuTilda, Initial residual = 0.000218225, Final residual = 1.79694e-05, No Iterations 2
bounding nuTilda, min: -0.0051307 max: 0.173104 average: 0.0167141
ExecutionTime = 894.211 s  ClockTime = 895 s

Time = 492s

smoothSolver:  Solving for Ux, Initial residual = 1.78407e-05, Final residual = 8.12128e-07, No Iterations 4
smoothSolver:  Solving for Uy, Initial residual = 0.000141287, Final residual = 6.5615e-06, No Iterations 4
smoothSolver:  Solving for Uz, Initial residual = 9.01683e-05, Final residual = 3.53226e-06, No Iterations 4
GAMG:  Solving for p, Initial residual = 6.92447e-07, Final residual = 7.88268e-08, No Iterations 1
time step continuity errors : sum local = 0.000345559, global = -0.000216923, cumulative = -0.0561771
smoothSolver:  Solving for nuTilda, Initial residual = 0.000217355, Final residual = 1.78966e-05, No Iterations 2
bounding nuTilda, min: -0.00519782 max: 0.173219 average: 0.0167181
ExecutionTime = 895.691 s  ClockTime = 896 s

Time = 493s

smoothSolver:  Solving for Ux, Initial residual = 1.78132e-05, Final residual = 8.17943e-07, No Iterations 4
smoothSolver:  Solving for Uy, Initial residual = 0.000140758, Final residual = 6.52288e-06, No Iterations 4
smoothSolver:  Solving for Uz, Initial residual = 9.04483e-05, Final residual = 3.53885e-06, No Iterations 4
GAMG:  Solving for p, Initial residual = 6.9605e-07, Final residual = 7.95146e-08, No Iterations 1
time step continuity errors : sum local = 0.000348112, global = -0.000214864, cumulative = -0.056392
smoothSolver:  Solving for nuTilda, Initial residual = 0.000216488, Final residual = 1.78194e-05, No Iterations 2
bounding nuTilda, min: -0.00514251 max: 0.173333 average: 0.0167216
ExecutionTime = 897.307 s  ClockTime = 898 s

Time = 494s

smoothSolver:  Solving for Ux, Initial residual = 1.7777e-05, Final residual = 8.18464e-07, No Iterations 4
smoothSolver:  Solving for Uy, Initial residual = 0.000140259, Final residual = 6.49107e-06, No Iterations 4
smoothSolver:  Solving for Uz, Initial residual = 9.0753e-05, Final residual = 3.55562e-06, No Iterations 4
GAMG:  Solving for p, Initial residual = 6.93818e-07, Final residual = 7.95479e-08, No Iterations 1
time step continuity errors : sum local = 0.000347796, global = -0.000212157, cumulative = -0.0566041
smoothSolver:  Solving for nuTilda, Initial residual = 0.000215581, Final residual = 1.77526e-05, No Iterations 2
bounding nuTilda, min: -0.00519895 max: 0.173447 average: 0.0167255
ExecutionTime = 898.875 s  ClockTime = 899 s

Time = 495s

smoothSolver:  Solving for Ux, Initial residual = 1.77355e-05, Final residual = 8.17604e-07, No Iterations 4
smoothSolver:  Solving for Uy, Initial residual = 0.000139722, Final residual = 6.45941e-06, No Iterations 4
smoothSolver:  Solving for Uz, Initial residual = 9.1012e-05, Final residual = 3.56771e-06, No Iterations 4
GAMG:  Solving for p, Initial residual = 6.97089e-07, Final residual = 8.02748e-08, No Iterations 1
time step continuity errors : sum local = 0.000350511, global = -0.000209373, cumulative = -0.0568135
smoothSolver:  Solving for nuTilda, Initial residual = 0.000214651, Final residual = 1.7675e-05, No Iterations 2
bounding nuTilda, min: -0.00513051 max: 0.17356 average: 0.016729
ExecutionTime = 900.41 s  ClockTime = 901 s

Time = 496s

smoothSolver:  Solving for Ux, Initial residual = 1.77126e-05, Final residual = 8.1523e-07, No Iterations 4
smoothSolver:  Solving for Uy, Initial residual = 0.000139449, Final residual = 6.44586e-06, No Iterations 4
smoothSolver:  Solving for Uz, Initial residual = 9.15237e-05, Final residual = 3.58653e-06, No Iterations 4
GAMG:  Solving for p, Initial residual = 6.96583e-07, Final residual = 8.0516e-08, No Iterations 1
time step continuity errors : sum local = 0.000351099, global = -0.000207003, cumulative = -0.0570205
smoothSolver:  Solving for nuTilda, Initial residual = 0.000213641, Final residual = 1.76046e-05, No Iterations 2
bounding nuTilda, min: -0.00519801 max: 0.173672 average: 0.016733
ExecutionTime = 901.866 s  ClockTime = 902 s

Time = 497s

smoothSolver:  Solving for Ux, Initial residual = 1.77039e-05, Final residual = 8.11707e-07, No Iterations 4
smoothSolver:  Solving for Uy, Initial residual = 0.000139286, Final residual = 6.44491e-06, No Iterations 4
smoothSolver:  Solving for Uz, Initial residual = 9.2037e-05, Final residual = 3.60637e-06, No Iterations 4
GAMG:  Solving for p, Initial residual = 6.99479e-07, Final residual = 8.07552e-08, No Iterations 1
time step continuity errors : sum local = 0.000351676, global = -0.000205461, cumulative = -0.057226
smoothSolver:  Solving for nuTilda, Initial residual = 0.000212726, Final residual = 1.75314e-05, No Iterations 2
bounding nuTilda, min: -0.00514236 max: 0.173784 average: 0.0167366
ExecutionTime = 903.347 s  ClockTime = 904 s

Time = 498s

smoothSolver:  Solving for Ux, Initial residual = 1.76842e-05, Final residual = 8.06371e-07, No Iterations 4
smoothSolver:  Solving for Uy, Initial residual = 0.000139101, Final residual = 6.44756e-06, No Iterations 4
smoothSolver:  Solving for Uz, Initial residual = 9.24905e-05, Final residual = 3.62203e-06, No Iterations 4
GAMG:  Solving for p, Initial residual = 6.97917e-07, Final residual = 8.06566e-08, No Iterations 1
time step continuity errors : sum local = 0.000350778, global = -0.000205381, cumulative = -0.0574314
smoothSolver:  Solving for nuTilda, Initial residual = 0.000211668, Final residual = 1.74618e-05, No Iterations 2
bounding nuTilda, min: -0.00519908 max: 0.173895 average: 0.0167406
ExecutionTime = 904.823 s  ClockTime = 905 s

Time = 499s

smoothSolver:  Solving for Ux, Initial residual = 1.76774e-05, Final residual = 8.02354e-07, No Iterations 4
smoothSolver:  Solving for Uy, Initial residual = 0.000139052, Final residual = 6.47133e-06, No Iterations 4
smoothSolver:  Solving for Uz, Initial residual = 9.28637e-05, Final residual = 3.63673e-06, No Iterations 4
GAMG:  Solving for p, Initial residual = 7.02566e-07, Final residual = 8.12833e-08, No Iterations 1
time step continuity errors : sum local = 0.000353027, global = -0.000206032, cumulative = -0.0576374
smoothSolver:  Solving for nuTilda, Initial residual = 0.000210673, Final residual = 1.73786e-05, No Iterations 2
bounding nuTilda, min: -0.00513046 max: 0.174005 average: 0.0167442
ExecutionTime = 906.314 s  ClockTime = 907 s

Time = 500s

smoothSolver:  Solving for Ux, Initial residual = 1.76281e-05, Final residual = 7.9716e-07, No Iterations 4
smoothSolver:  Solving for Uy, Initial residual = 0.000139143, Final residual = 6.51237e-06, No Iterations 4
smoothSolver:  Solving for Uz, Initial residual = 9.31674e-05, Final residual = 3.64715e-06, No Iterations 4
GAMG:  Solving for p, Initial residual = 7.01829e-07, Final residual = 8.1291e-08, No Iterations 1
time step continuity errors : sum local = 0.000352584, global = -0.000207992, cumulative = -0.0578454
smoothSolver:  Solving for nuTilda, Initial residual = 0.000209541, Final residual = 1.72952e-05, No Iterations 2
bounding nuTilda, min: -0.00519796 max: 0.174115 average: 0.0167482
ExecutionTime = 907.684 s  ClockTime = 908 s

End

Finalising parallel run
