/*---------------------------------------------------------------------------*\
  =========                 |
  \\      /  F ield         | OpenFOAM: The Open Source CFD Toolbox
   \\    /   O peration     | Website:  https://openfoam.org
    \\  /    A nd           | Version:  11
     \\/     M anipulation  |
\*---------------------------------------------------------------------------*/
Build  : 11-d496a603da00
Exec   : foamRun -solver incompressibleFluid -parallel
Date   : Oct 19 2023
Time   : 12:52:55
Host   : "Laptop"
PID    : 85820
I/O    : uncollated
Case   : /home/tiago/OpenFOAM/tiago-11/run/wind_tunnel
nProcs : 6
Slaves : 
5
(
"Laptop.85821"
"Laptop.85823"
"Laptop.85827"
"Laptop.85831"
"Laptop.85835"
)

Pstream initialised with:
    floatTransfer      : false
    nProcsSimpleSum    : 0
    commsType          : nonBlocking
    polling iterations : 0
sigFpe : Enabling floating point exception trapping (FOAM_SIGFPE).
fileModificationChecking : Monitoring run-time modified files using timeStampMaster (fileModificationSkew 10)
allowSystemOperations : Allowing user-supplied system call operations

// * * * * * * * * * * * * * * * * * * * * * * * * * * * * * * * * * * * * * //
Create time

Create mesh for time = 0

Selecting solver incompressibleFluid
Selecting viscosity model constant
Selecting turbulence model type RAS
Selecting RAS turbulence model SpalartAllmaras
Selecting patchDistMethod meshWave
RAS
{
    model           SpalartAllmaras;
    turbulence      on;
    printCoeffs     on;
    sigmaNut        0.66666;
    kappa           0.41;
    Cb1             0.1355;
    Cb2             0.622;
    Cw2             0.3;
    Cw3             2;
    Cv1             7.1;
    Cs              0.3;
}

No MRF models present


SIMPLE: Convergence criteria found
        p: tolerance 0.0001
        U: tolerance 0.0001
        nuTilda: tolerance 0.0001


SIMPLE: Operating solver in steady-state mode with 1 outer corrector
SIMPLE: Operating solver in SIMPLE mode



Starting time loop

Time = 1s

smoothSolver:  Solving for Ux, Initial residual = 1, Final residual = 2.37091e-05, No Iterations 2
smoothSolver:  Solving for Uy, Initial residual = 1, Final residual = 3.23118e-05, No Iterations 2
smoothSolver:  Solving for Uz, Initial residual = 1, Final residual = 4.05806e-05, No Iterations 2
GAMG:  Solving for p, Initial residual = 1, Final residual = 0.00735029, No Iterations 12
time step continuity errors : sum local = 0.00426694, global = 0.00101146, cumulative = 0.00101146
smoothSolver:  Solving for nuTilda, Initial residual = 1, Final residual = 0.0289633, No Iterations 4
bounding nuTilda, min: -0.00104452 max: 0.0374 average: 0.000228108
ExecutionTime = 4.89135 s  ClockTime = 5 s

Time = 2s

smoothSolver:  Solving for Ux, Initial residual = 0.0929705, Final residual = 0.00618184, No Iterations 4
smoothSolver:  Solving for Uy, Initial residual = 0.233421, Final residual = 0.0153722, No Iterations 4
smoothSolver:  Solving for Uz, Initial residual = 0.236762, Final residual = 0.0135894, No Iterations 4
GAMG:  Solving for p, Initial residual = 0.013729, Final residual = 0.000136429, No Iterations 55
time step continuity errors : sum local = 0.00999225, global = -0.000338168, cumulative = 0.000673293
smoothSolver:  Solving for nuTilda, Initial residual = 0.150873, Final residual = 0.00455048, No Iterations 4
bounding nuTilda, min: -0.00223919 max: 0.0374 average: 0.000323774
ExecutionTime = 8.57049 s  ClockTime = 9 s

Time = 3s

smoothSolver:  Solving for Ux, Initial residual = 0.326866, Final residual = 0.0264711, No Iterations 4
smoothSolver:  Solving for Uy, Initial residual = 0.302903, Final residual = 0.0261795, No Iterations 4
smoothSolver:  Solving for Uz, Initial residual = 0.295022, Final residual = 0.0251874, No Iterations 4
GAMG:  Solving for p, Initial residual = 4.85019e-05, Final residual = 2.43762e-07, No Iterations 6
time step continuity errors : sum local = 0.00856994, global = -0.00084204, cumulative = -0.000168747
smoothSolver:  Solving for nuTilda, Initial residual = 0.0899485, Final residual = 0.00355024, No Iterations 4
bounding nuTilda, min: -0.00189506 max: 0.0374 average: 0.000405025
ExecutionTime = 9.9156 s  ClockTime = 10 s

Time = 4s

smoothSolver:  Solving for Ux, Initial residual = 0.236507, Final residual = 0.0209469, No Iterations 4
smoothSolver:  Solving for Uy, Initial residual = 0.199518, Final residual = 0.0184678, No Iterations 4
smoothSolver:  Solving for Uz, Initial residual = 0.207136, Final residual = 0.0180386, No Iterations 4
GAMG:  Solving for p, Initial residual = 3.81694e-05, Final residual = 3.32085e-07, No Iterations 11
time step continuity errors : sum local = 0.0171663, global = 9.87856e-05, cumulative = -6.99611e-05
smoothSolver:  Solving for nuTilda, Initial residual = 0.063404, Final residual = 0.00266309, No Iterations 4
bounding nuTilda, min: -0.00251533 max: 0.0375902 average: 0.000484672
ExecutionTime = 11.4738 s  ClockTime = 12 s

Time = 5s

smoothSolver:  Solving for Ux, Initial residual = 0.0802078, Final residual = 0.00661533, No Iterations 4
smoothSolver:  Solving for Uy, Initial residual = 0.140501, Final residual = 0.0112809, No Iterations 4
smoothSolver:  Solving for Uz, Initial residual = 0.14183, Final residual = 0.0126146, No Iterations 4
GAMG:  Solving for p, Initial residual = 0.000104329, Final residual = 9.7392e-07, No Iterations 9
time step continuity errors : sum local = 0.0190777, global = 5.66285e-05, cumulative = -1.33326e-05
smoothSolver:  Solving for nuTilda, Initial residual = 0.0507382, Final residual = 0.00217648, No Iterations 4
bounding nuTilda, min: -0.0038876 max: 0.0377616 average: 0.000562756
ExecutionTime = 13.0734 s  ClockTime = 13 s

Time = 6s

smoothSolver:  Solving for Ux, Initial residual = 0.150891, Final residual = 0.00878872, No Iterations 4
smoothSolver:  Solving for Uy, Initial residual = 0.147578, Final residual = 0.00963859, No Iterations 4
smoothSolver:  Solving for Uz, Initial residual = 0.142518, Final residual = 0.00888928, No Iterations 4
GAMG:  Solving for p, Initial residual = 0.000135182, Final residual = 1.20151e-06, No Iterations 6
time step continuity errors : sum local = 0.0168727, global = 0.00134077, cumulative = 0.00132744
smoothSolver:  Solving for nuTilda, Initial residual = 0.0430007, Final residual = 0.00182394, No Iterations 4
bounding nuTilda, min: -0.00457488 max: 0.0377279 average: 0.00064289
ExecutionTime = 14.5419 s  ClockTime = 15 s

Time = 7s

smoothSolver:  Solving for Ux, Initial residual = 0.14649, Final residual = 0.0126959, No Iterations 4
smoothSolver:  Solving for Uy, Initial residual = 0.146813, Final residual = 0.0101828, No Iterations 4
smoothSolver:  Solving for Uz, Initial residual = 0.149202, Final residual = 0.0104641, No Iterations 4
GAMG:  Solving for p, Initial residual = 9.25267e-05, Final residual = 6.12034e-07, No Iterations 9
time step continuity errors : sum local = 0.012191, global = 0.000160721, cumulative = 0.00148816
smoothSolver:  Solving for nuTilda, Initial residual = 0.0371993, Final residual = 0.00154367, No Iterations 4
bounding nuTilda, min: -0.00513172 max: 0.0375997 average: 0.000722283
ExecutionTime = 16.5119 s  ClockTime = 17 s

Time = 8s

smoothSolver:  Solving for Ux, Initial residual = 0.0819302, Final residual = 0.00602567, No Iterations 4
smoothSolver:  Solving for Uy, Initial residual = 0.11468, Final residual = 0.00765703, No Iterations 4
smoothSolver:  Solving for Uz, Initial residual = 0.125318, Final residual = 0.00856852, No Iterations 4
GAMG:  Solving for p, Initial residual = 0.000187891, Final residual = 1.13135e-06, No Iterations 8
time step continuity errors : sum local = 0.0100462, global = 0.000135219, cumulative = 0.00162338
smoothSolver:  Solving for nuTilda, Initial residual = 0.0318917, Final residual = 0.0013368, No Iterations 4
bounding nuTilda, min: -0.00510827 max: 0.0375269 average: 0.000801831
ExecutionTime = 18.0012 s  ClockTime = 18 s

Time = 9s

smoothSolver:  Solving for Ux, Initial residual = 0.0991558, Final residual = 0.00506802, No Iterations 4
smoothSolver:  Solving for Uy, Initial residual = 0.109568, Final residual = 0.0055505, No Iterations 4
smoothSolver:  Solving for Uz, Initial residual = 0.113708, Final residual = 0.00541314, No Iterations 4
GAMG:  Solving for p, Initial residual = 0.000204278, Final residual = 1.24433e-06, No Iterations 6
time step continuity errors : sum local = 0.0102427, global = -0.000966568, cumulative = 0.000656808
smoothSolver:  Solving for nuTilda, Initial residual = 0.0281222, Final residual = 0.00116921, No Iterations 4
bounding nuTilda, min: -0.00513565 max: 0.0374744 average: 0.000880067
ExecutionTime = 19.3698 s  ClockTime = 19 s

Time = 10s

smoothSolver:  Solving for Ux, Initial residual = 0.0774825, Final residual = 0.00604096, No Iterations 4
smoothSolver:  Solving for Uy, Initial residual = 0.110458, Final residual = 0.00602144, No Iterations 4
smoothSolver:  Solving for Uz, Initial residual = 0.115152, Final residual = 0.00652453, No Iterations 4
GAMG:  Solving for p, Initial residual = 8.99683e-05, Final residual = 8.03709e-07, No Iterations 7
time step continuity errors : sum local = 0.0147027, global = -0.000247798, cumulative = 0.00040901
smoothSolver:  Solving for nuTilda, Initial residual = 0.0251211, Final residual = 0.00104253, No Iterations 4
bounding nuTilda, min: -0.00517621 max: 0.0375184 average: 0.000958132
ExecutionTime = 21.4402 s  ClockTime = 22 s

Time = 11s

smoothSolver:  Solving for Ux, Initial residual = 0.0572822, Final residual = 0.00346976, No Iterations 4
smoothSolver:  Solving for Uy, Initial residual = 0.101915, Final residual = 0.00537637, No Iterations 4
smoothSolver:  Solving for Uz, Initial residual = 0.106326, Final residual = 0.00608891, No Iterations 4
GAMG:  Solving for p, Initial residual = 0.000119478, Final residual = 9.70219e-07, No Iterations 8
time step continuity errors : sum local = 0.0128288, global = 0.000517617, cumulative = 0.000926627
smoothSolver:  Solving for nuTilda, Initial residual = 0.0227906, Final residual = 0.000939396, No Iterations 4
bounding nuTilda, min: -0.00522454 max: 0.0375365 average: 0.00103305
ExecutionTime = 23.2435 s  ClockTime = 23 s

Time = 12s

smoothSolver:  Solving for Ux, Initial residual = 0.0577471, Final residual = 0.00244187, No Iterations 4
smoothSolver:  Solving for Uy, Initial residual = 0.0935683, Final residual = 0.00418605, No Iterations 4
smoothSolver:  Solving for Uz, Initial residual = 0.0918864, Final residual = 0.00411971, No Iterations 4
GAMG:  Solving for p, Initial residual = 0.00118166, Final residual = 1.13279e-05, No Iterations 5
time step continuity errors : sum local = 0.0144278, global = -0.000666595, cumulative = 0.000260032
smoothSolver:  Solving for nuTilda, Initial residual = 0.0209061, Final residual = 0.000858581, No Iterations 4
bounding nuTilda, min: -0.00522987 max: 0.0375366 average: 0.00110469
ExecutionTime = 24.9289 s  ClockTime = 25 s

Time = 13s

smoothSolver:  Solving for Ux, Initial residual = 0.0508337, Final residual = 0.00349464, No Iterations 4
smoothSolver:  Solving for Uy, Initial residual = 0.0904117, Final residual = 0.00419178, No Iterations 4
smoothSolver:  Solving for Uz, Initial residual = 0.0878578, Final residual = 0.00404967, No Iterations 4
GAMG:  Solving for p, Initial residual = 0.00048894, Final residual = 4.59767e-06, No Iterations 5
time step continuity errors : sum local = 0.0138932, global = -0.00143182, cumulative = -0.00117179
smoothSolver:  Solving for nuTilda, Initial residual = 0.0193962, Final residual = 0.000789465, No Iterations 4
bounding nuTilda, min: -0.00522275 max: 0.0375233 average: 0.00117231
ExecutionTime = 26.4865 s  ClockTime = 27 s

Time = 14s

smoothSolver:  Solving for Ux, Initial residual = 0.0494836, Final residual = 0.00239673, No Iterations 4
smoothSolver:  Solving for Uy, Initial residual = 0.0913233, Final residual = 0.00403836, No Iterations 4
smoothSolver:  Solving for Uz, Initial residual = 0.0917458, Final residual = 0.00423326, No Iterations 4
GAMG:  Solving for p, Initial residual = 0.000802264, Final residual = 7.20778e-06, No Iterations 5
time step continuity errors : sum local = 0.0127683, global = -0.000447637, cumulative = -0.00161942
smoothSolver:  Solving for nuTilda, Initial residual = 0.0180463, Final residual = 0.000731285, No Iterations 4
bounding nuTilda, min: -0.00519145 max: 0.0374997 average: 0.00123817
ExecutionTime = 27.8319 s  ClockTime = 28 s

Time = 15s

smoothSolver:  Solving for Ux, Initial residual = 0.0448658, Final residual = 0.0015086, No Iterations 4
smoothSolver:  Solving for Uy, Initial residual = 0.0961978, Final residual = 0.00327783, No Iterations 4
smoothSolver:  Solving for Uz, Initial residual = 0.0953819, Final residual = 0.00327468, No Iterations 4
GAMG:  Solving for p, Initial residual = 0.00158129, Final residual = 1.43437e-05, No Iterations 5
time step continuity errors : sum local = 0.0128531, global = -0.00012698, cumulative = -0.0017464
smoothSolver:  Solving for nuTilda, Initial residual = 0.0168621, Final residual = 0.000681268, No Iterations 4
bounding nuTilda, min: -0.00517708 max: 0.0375067 average: 0.00130062
ExecutionTime = 29.2072 s  ClockTime = 29 s

Time = 16s

smoothSolver:  Solving for Ux, Initial residual = 0.0392971, Final residual = 0.00204726, No Iterations 4
smoothSolver:  Solving for Uy, Initial residual = 0.100182, Final residual = 0.0034338, No Iterations 4
smoothSolver:  Solving for Uz, Initial residual = 0.0963438, Final residual = 0.00309006, No Iterations 4
GAMG:  Solving for p, Initial residual = 0.000477023, Final residual = 2.4869e-06, No Iterations 6
time step continuity errors : sum local = 0.00733787, global = -0.000696632, cumulative = -0.00244304
smoothSolver:  Solving for nuTilda, Initial residual = 0.0158881, Final residual = 0.000637648, No Iterations 4
bounding nuTilda, min: -0.00519154 max: 0.0375003 average: 0.00136069
ExecutionTime = 30.8354 s  ClockTime = 31 s

Time = 17s

smoothSolver:  Solving for Ux, Initial residual = 0.040142, Final residual = 0.0017463, No Iterations 4
smoothSolver:  Solving for Uy, Initial residual = 0.0965164, Final residual = 0.00330011, No Iterations 4
smoothSolver:  Solving for Uz, Initial residual = 0.0923585, Final residual = 0.00332495, No Iterations 4
GAMG:  Solving for p, Initial residual = 0.000449488, Final residual = 3.84855e-06, No Iterations 5
time step continuity errors : sum local = 0.0121719, global = 0.000220854, cumulative = -0.00222218
smoothSolver:  Solving for nuTilda, Initial residual = 0.0151438, Final residual = 0.000602067, No Iterations 4
bounding nuTilda, min: -0.00518537 max: 0.0374935 average: 0.00141689
ExecutionTime = 32.316 s  ClockTime = 32 s

Time = 18s

smoothSolver:  Solving for Ux, Initial residual = 0.0366791, Final residual = 0.00120963, No Iterations 4
smoothSolver:  Solving for Uy, Initial residual = 0.0906501, Final residual = 0.00282736, No Iterations 4
smoothSolver:  Solving for Uz, Initial residual = 0.0847975, Final residual = 0.00281919, No Iterations 4
GAMG:  Solving for p, Initial residual = 0.000719445, Final residual = 6.78692e-06, No Iterations 4
time step continuity errors : sum local = 0.0133859, global = 0.000417075, cumulative = -0.00180511
smoothSolver:  Solving for nuTilda, Initial residual = 0.0143954, Final residual = 0.000571667, No Iterations 4
bounding nuTilda, min: -0.00521792 max: 0.0374873 average: 0.00147276
ExecutionTime = 34.2064 s  ClockTime = 34 s

Time = 19s

smoothSolver:  Solving for Ux, Initial residual = 0.033643, Final residual = 0.00124159, No Iterations 4
smoothSolver:  Solving for Uy, Initial residual = 0.0931761, Final residual = 0.00290681, No Iterations 4
smoothSolver:  Solving for Uz, Initial residual = 0.0864384, Final residual = 0.0025577, No Iterations 4
GAMG:  Solving for p, Initial residual = 0.001998, Final residual = 1.37611e-05, No Iterations 4
time step continuity errors : sum local = 0.00975942, global = 0.000538654, cumulative = -0.00126645
smoothSolver:  Solving for nuTilda, Initial residual = 0.0137239, Final residual = 0.000545682, No Iterations 4
bounding nuTilda, min: -0.00518789 max: 0.0374923 average: 0.00152654
ExecutionTime = 35.6526 s  ClockTime = 36 s

Time = 20s

smoothSolver:  Solving for Ux, Initial residual = 0.0336182, Final residual = 0.00117207, No Iterations 4
smoothSolver:  Solving for Uy, Initial residual = 0.0980716, Final residual = 0.00308432, No Iterations 4
smoothSolver:  Solving for Uz, Initial residual = 0.0921379, Final residual = 0.00295157, No Iterations 4
GAMG:  Solving for p, Initial residual = 0.00324611, Final residual = 2.3739e-05, No Iterations 4
time step continuity errors : sum local = 0.0103228, global = -0.0011853, cumulative = -0.00245176
smoothSolver:  Solving for nuTilda, Initial residual = 0.0131491, Final residual = 0.000521793, No Iterations 4
bounding nuTilda, min: -0.00520795 max: 0.0375051 average: 0.00158068
ExecutionTime = 37.0011 s  ClockTime = 37 s

Time = 21s

smoothSolver:  Solving for Ux, Initial residual = 0.0318289, Final residual = 0.00102534, No Iterations 4
smoothSolver:  Solving for Uy, Initial residual = 0.0958615, Final residual = 0.00274631, No Iterations 4
smoothSolver:  Solving for Uz, Initial residual = 0.0894042, Final residual = 0.0026242, No Iterations 4
GAMG:  Solving for p, Initial residual = 0.00151302, Final residual = 1.13192e-05, No Iterations 4
time step continuity errors : sum local = 0.0106334, global = -0.00152409, cumulative = -0.00397585
smoothSolver:  Solving for nuTilda, Initial residual = 0.0126614, Final residual = 0.000498877, No Iterations 4
bounding nuTilda, min: -0.0051795 max: 0.0375063 average: 0.00163229
ExecutionTime = 38.1404 s  ClockTime = 38 s

Time = 22s

smoothSolver:  Solving for Ux, Initial residual = 0.0302195, Final residual = 0.000880491, No Iterations 4
smoothSolver:  Solving for Uy, Initial residual = 0.091984, Final residual = 0.00244679, No Iterations 4
smoothSolver:  Solving for Uz, Initial residual = 0.0832055, Final residual = 0.00208866, No Iterations 4
GAMG:  Solving for p, Initial residual = 0.000778835, Final residual = 5.51306e-06, No Iterations 4
time step continuity errors : sum local = 0.0100543, global = -0.0015302, cumulative = -0.00550604
smoothSolver:  Solving for nuTilda, Initial residual = 0.0122853, Final residual = 0.000480515, No Iterations 4
bounding nuTilda, min: -0.0051992 max: 0.0375004 average: 0.00168368
ExecutionTime = 39.1698 s  ClockTime = 39 s

Time = 23s

smoothSolver:  Solving for Ux, Initial residual = 0.0308737, Final residual = 0.000973179, No Iterations 4
smoothSolver:  Solving for Uy, Initial residual = 0.0917715, Final residual = 0.00254126, No Iterations 4
smoothSolver:  Solving for Uz, Initial residual = 0.0824807, Final residual = 0.00226373, No Iterations 4
GAMG:  Solving for p, Initial residual = 0.000567251, Final residual = 3.36555e-06, No Iterations 4
time step continuity errors : sum local = 0.00848203, global = -0.00111165, cumulative = -0.0066177
smoothSolver:  Solving for nuTilda, Initial residual = 0.0119472, Final residual = 0.000464497, No Iterations 4
bounding nuTilda, min: -0.00517964 max: 0.0375047 average: 0.00173303
ExecutionTime = 40.3243 s  ClockTime = 40 s

Time = 24s

smoothSolver:  Solving for Ux, Initial residual = 0.0294263, Final residual = 0.000924898, No Iterations 4
smoothSolver:  Solving for Uy, Initial residual = 0.0941531, Final residual = 0.00247186, No Iterations 4
smoothSolver:  Solving for Uz, Initial residual = 0.0838292, Final residual = 0.00233701, No Iterations 4
GAMG:  Solving for p, Initial residual = 0.00052456, Final residual = 3.59974e-06, No Iterations 4
time step continuity errors : sum local = 0.00979499, global = -0.000479011, cumulative = -0.00709671
smoothSolver:  Solving for nuTilda, Initial residual = 0.0116106, Final residual = 0.000450446, No Iterations 4
bounding nuTilda, min: -0.00520547 max: 0.0375113 average: 0.00178336
ExecutionTime = 42.095 s  ClockTime = 42 s

Time = 25s

smoothSolver:  Solving for Ux, Initial residual = 0.0280063, Final residual = 0.000746951, No Iterations 4
smoothSolver:  Solving for Uy, Initial residual = 0.0976747, Final residual = 0.00231189, No Iterations 4
smoothSolver:  Solving for Uz, Initial residual = 0.0858252, Final residual = 0.00207219, No Iterations 4
GAMG:  Solving for p, Initial residual = 0.000607366, Final residual = 3.56962e-06, No Iterations 4
time step continuity errors : sum local = 0.00852354, global = -0.000608874, cumulative = -0.00770558
smoothSolver:  Solving for nuTilda, Initial residual = 0.0113244, Final residual = 0.000437315, No Iterations 4
bounding nuTilda, min: -0.00518168 max: 0.0375113 average: 0.00183204
ExecutionTime = 43.6196 s  ClockTime = 44 s

Time = 26s

smoothSolver:  Solving for Ux, Initial residual = 0.0278637, Final residual = 0.000701922, No Iterations 4
smoothSolver:  Solving for Uy, Initial residual = 0.099631, Final residual = 0.00219717, No Iterations 4
smoothSolver:  Solving for Uz, Initial residual = 0.0866179, Final residual = 0.00185801, No Iterations 4
GAMG:  Solving for p, Initial residual = 0.000747811, Final residual = 6.12166e-06, No Iterations 3
time step continuity errors : sum local = 0.0120469, global = 0.000527949, cumulative = -0.00717763
smoothSolver:  Solving for nuTilda, Initial residual = 0.0110797, Final residual = 0.000425399, No Iterations 4
bounding nuTilda, min: -0.00520296 max: 0.0375083 average: 0.00188118
ExecutionTime = 45.068 s  ClockTime = 45 s

Time = 27s

smoothSolver:  Solving for Ux, Initial residual = 0.0278506, Final residual = 0.000677852, No Iterations 4
smoothSolver:  Solving for Uy, Initial residual = 0.0988726, Final residual = 0.00211544, No Iterations 4
smoothSolver:  Solving for Uz, Initial residual = 0.0864924, Final residual = 0.0018633, No Iterations 4
GAMG:  Solving for p, Initial residual = 0.000757777, Final residual = 5.89387e-06, No Iterations 3
time step continuity errors : sum local = 0.011662, global = -0.000135466, cumulative = -0.0073131
smoothSolver:  Solving for nuTilda, Initial residual = 0.0108763, Final residual = 0.000414164, No Iterations 4
bounding nuTilda, min: -0.00518084 max: 0.0375168 average: 0.00192815
ExecutionTime = 46.2286 s  ClockTime = 46 s

Time = 28s

smoothSolver:  Solving for Ux, Initial residual = 0.0276603, Final residual = 0.000641331, No Iterations 4
smoothSolver:  Solving for Uy, Initial residual = 0.0996803, Final residual = 0.00219315, No Iterations 4
smoothSolver:  Solving for Uz, Initial residual = 0.0872178, Final residual = 0.00188548, No Iterations 4
GAMG:  Solving for p, Initial residual = 0.000737751, Final residual = 6.56267e-06, No Iterations 3
time step continuity errors : sum local = 0.0135727, global = -0.00182498, cumulative = -0.00913808
smoothSolver:  Solving for nuTilda, Initial residual = 0.010695, Final residual = 0.000403354, No Iterations 4
bounding nuTilda, min: -0.00520572 max: 0.0375222 average: 0.00197566
ExecutionTime = 47.5742 s  ClockTime = 48 s

Time = 29s

smoothSolver:  Solving for Ux, Initial residual = 0.026918, Final residual = 0.000595551, No Iterations 4
smoothSolver:  Solving for Uy, Initial residual = 0.101869, Final residual = 0.00223013, No Iterations 4
smoothSolver:  Solving for Uz, Initial residual = 0.0892209, Final residual = 0.0018971, No Iterations 4
GAMG:  Solving for p, Initial residual = 0.000656476, Final residual = 2.83646e-06, No Iterations 4
time step continuity errors : sum local = 0.0066283, global = 0.000151994, cumulative = -0.00898609
smoothSolver:  Solving for nuTilda, Initial residual = 0.010526, Final residual = 0.000393394, No Iterations 4
bounding nuTilda, min: -0.00517991 max: 0.0375226 average: 0.00202132
ExecutionTime = 48.9575 s  ClockTime = 49 s

Time = 30s

smoothSolver:  Solving for Ux, Initial residual = 0.0262817, Final residual = 0.000563211, No Iterations 4
smoothSolver:  Solving for Uy, Initial residual = 0.104745, Final residual = 0.00219448, No Iterations 4
smoothSolver:  Solving for Uz, Initial residual = 0.0920059, Final residual = 0.00196085, No Iterations 4
GAMG:  Solving for p, Initial residual = 0.000523795, Final residual = 3.96967e-06, No Iterations 3
time step continuity errors : sum local = 0.0116761, global = -0.0007333, cumulative = -0.00971939
smoothSolver:  Solving for nuTilda, Initial residual = 0.010365, Final residual = 0.000383975, No Iterations 4
bounding nuTilda, min: -0.00520445 max: 0.0375227 average: 0.00206775
ExecutionTime = 50.2287 s  ClockTime = 50 s

Time = 31s

smoothSolver:  Solving for Ux, Initial residual = 0.0261688, Final residual = 0.000570149, No Iterations 4
smoothSolver:  Solving for Uy, Initial residual = 0.106317, Final residual = 0.00208357, No Iterations 4
smoothSolver:  Solving for Uz, Initial residual = 0.0934616, Final residual = 0.00192784, No Iterations 4
GAMG:  Solving for p, Initial residual = 0.000531998, Final residual = 3.57254e-06, No Iterations 3
time step continuity errors : sum local = 0.0102539, global = -5.74762e-05, cumulative = -0.00977686
smoothSolver:  Solving for nuTilda, Initial residual = 0.0102212, Final residual = 0.000374824, No Iterations 4
bounding nuTilda, min: -0.00517975 max: 0.0375311 average: 0.00211233
ExecutionTime = 51.4934 s  ClockTime = 52 s

Time = 32s

smoothSolver:  Solving for Ux, Initial residual = 0.0264663, Final residual = 0.000586165, No Iterations 4
smoothSolver:  Solving for Uy, Initial residual = 0.105816, Final residual = 0.0105376, No Iterations 2
smoothSolver:  Solving for Uz, Initial residual = 0.0932128, Final residual = 0.00186124, No Iterations 4
GAMG:  Solving for p, Initial residual = 0.00051672, Final residual = 3.44383e-06, No Iterations 3
time step continuity errors : sum local = 0.0102441, global = 0.000835791, cumulative = -0.00894107
smoothSolver:  Solving for nuTilda, Initial residual = 0.0100863, Final residual = 0.000366402, No Iterations 4
bounding nuTilda, min: -0.005205 max: 0.0375339 average: 0.00215752
ExecutionTime = 52.5881 s  ClockTime = 53 s

Time = 33s

smoothSolver:  Solving for Ux, Initial residual = 0.0263858, Final residual = 0.000595681, No Iterations 4
smoothSolver:  Solving for Uy, Initial residual = 0.106014, Final residual = 0.00199797, No Iterations 4
smoothSolver:  Solving for Uz, Initial residual = 0.092996, Final residual = 0.00181337, No Iterations 4
GAMG:  Solving for p, Initial residual = 0.000518551, Final residual = 3.59135e-06, No Iterations 3
time step continuity errors : sum local = 0.0110599, global = 0.00139218, cumulative = -0.00754889
smoothSolver:  Solving for nuTilda, Initial residual = 0.00997168, Final residual = 0.000358729, No Iterations 4
bounding nuTilda, min: -0.00518036 max: 0.0375334 average: 0.00220097
ExecutionTime = 53.5351 s  ClockTime = 54 s

Time = 34s

smoothSolver:  Solving for Ux, Initial residual = 0.0257548, Final residual = 0.000573501, No Iterations 4
smoothSolver:  Solving for Uy, Initial residual = 0.103988, Final residual = 0.0103321, No Iterations 2
smoothSolver:  Solving for Uz, Initial residual = 0.0934597, Final residual = 0.00177664, No Iterations 4
GAMG:  Solving for p, Initial residual = 0.000523812, Final residual = 4.11788e-06, No Iterations 3
time step continuity errors : sum local = 0.0127543, global = 0.000914415, cumulative = -0.00663448
smoothSolver:  Solving for nuTilda, Initial residual = 0.00985904, Final residual = 0.000351171, No Iterations 4
bounding nuTilda, min: -0.00520566 max: 0.0375387 average: 0.00224522
ExecutionTime = 54.518 s  ClockTime = 55 s

Time = 35s

smoothSolver:  Solving for Ux, Initial residual = 0.0249149, Final residual = 0.000552412, No Iterations 4
smoothSolver:  Solving for Uy, Initial residual = 0.104357, Final residual = 0.00207764, No Iterations 4
smoothSolver:  Solving for Uz, Initial residual = 0.093314, Final residual = 0.0017313, No Iterations 4
GAMG:  Solving for p, Initial residual = 0.000536505, Final residual = 3.23632e-06, No Iterations 3
time step continuity errors : sum local = 0.00982045, global = 0.000874251, cumulative = -0.00576023
smoothSolver:  Solving for nuTilda, Initial residual = 0.00977482, Final residual = 0.000344763, No Iterations 4
bounding nuTilda, min: -0.00518026 max: 0.0375437 average: 0.00228792
ExecutionTime = 56.0373 s  ClockTime = 56 s

Time = 36s

smoothSolver:  Solving for Ux, Initial residual = 0.0244184, Final residual = 0.000549306, No Iterations 4
smoothSolver:  Solving for Uy, Initial residual = 0.103887, Final residual = 0.00212801, No Iterations 4
smoothSolver:  Solving for Uz, Initial residual = 0.0918378, Final residual = 0.0016892, No Iterations 4
GAMG:  Solving for p, Initial residual = 0.000518549, Final residual = 2.94668e-06, No Iterations 3
time step continuity errors : sum local = 0.00925463, global = 8.65435e-05, cumulative = -0.00567368
smoothSolver:  Solving for nuTilda, Initial residual = 0.00969749, Final residual = 0.00033855, No Iterations 4
bounding nuTilda, min: -0.00520481 max: 0.0375451 average: 0.00233162
ExecutionTime = 58.1706 s  ClockTime = 58 s

Time = 37s

smoothSolver:  Solving for Ux, Initial residual = 0.024421, Final residual = 0.000532906, No Iterations 4
smoothSolver:  Solving for Uy, Initial residual = 0.10328, Final residual = 0.00213136, No Iterations 4
smoothSolver:  Solving for Uz, Initial residual = 0.0894869, Final residual = 0.00891654, No Iterations 2
GAMG:  Solving for p, Initial residual = 0.000487243, Final residual = 2.71026e-06, No Iterations 3
time step continuity errors : sum local = 0.00901806, global = -4.95459e-05, cumulative = -0.00572323
smoothSolver:  Solving for nuTilda, Initial residual = 0.0096393, Final residual = 0.000332816, No Iterations 4
bounding nuTilda, min: -0.00518041 max: 0.0375462 average: 0.00237395
ExecutionTime = 59.2645 s  ClockTime = 59 s

Time = 38s

smoothSolver:  Solving for Ux, Initial residual = 0.0242881, Final residual = 0.00051915, No Iterations 4
smoothSolver:  Solving for Uy, Initial residual = 0.10276, Final residual = 0.0020785, No Iterations 4
smoothSolver:  Solving for Uz, Initial residual = 0.0882858, Final residual = 0.00169745, No Iterations 4
GAMG:  Solving for p, Initial residual = 0.000455058, Final residual = 2.73272e-06, No Iterations 3
time step continuity errors : sum local = 0.00973892, global = 0.000249839, cumulative = -0.00547339
smoothSolver:  Solving for nuTilda, Initial residual = 0.00959437, Final residual = 0.00032729, No Iterations 4
bounding nuTilda, min: -0.0052058 max: 0.037553 average: 0.00241748
ExecutionTime = 60.5328 s  ClockTime = 61 s

Time = 39s

smoothSolver:  Solving for Ux, Initial residual = 0.0237622, Final residual = 0.000504747, No Iterations 4
smoothSolver:  Solving for Uy, Initial residual = 0.101907, Final residual = 0.00195903, No Iterations 4
smoothSolver:  Solving for Uz, Initial residual = 0.0851229, Final residual = 0.00833428, No Iterations 2
GAMG:  Solving for p, Initial residual = 0.000417303, Final residual = 2.63879e-06, No Iterations 3
time step continuity errors : sum local = 0.0101988, global = 0.000245282, cumulative = -0.00522811
smoothSolver:  Solving for nuTilda, Initial residual = 0.00957217, Final residual = 0.000322232, No Iterations 4
bounding nuTilda, min: -0.00517996 max: 0.0375561 average: 0.00245986
ExecutionTime = 61.6889 s  ClockTime = 62 s

Time = 40s

smoothSolver:  Solving for Ux, Initial residual = 0.0226803, Final residual = 0.00226503, No Iterations 2
smoothSolver:  Solving for Uy, Initial residual = 0.100239, Final residual = 0.00980212, No Iterations 2
smoothSolver:  Solving for Uz, Initial residual = 0.0825199, Final residual = 0.0080323, No Iterations 2
GAMG:  Solving for p, Initial residual = 0.000377936, Final residual = 2.13312e-06, No Iterations 3
time step continuity errors : sum local = 0.00904105, global = -0.000291651, cumulative = -0.00551976
smoothSolver:  Solving for nuTilda, Initial residual = 0.00953887, Final residual = 0.000317037, No Iterations 4
bounding nuTilda, min: -0.00520553 max: 0.037557 average: 0.00250363
ExecutionTime = 62.8413 s  ClockTime = 63 s

Time = 41s

smoothSolver:  Solving for Ux, Initial residual = 0.0219438, Final residual = 0.00216398, No Iterations 2
smoothSolver:  Solving for Uy, Initial residual = 0.0990322, Final residual = 0.00973822, No Iterations 2
smoothSolver:  Solving for Uz, Initial residual = 0.0792839, Final residual = 0.00761286, No Iterations 2
GAMG:  Solving for p, Initial residual = 0.000344154, Final residual = 1.99567e-06, No Iterations 3
time step continuity errors : sum local = 0.0091383, global = -0.000224025, cumulative = -0.00574378
smoothSolver:  Solving for nuTilda, Initial residual = 0.00952171, Final residual = 0.000312203, No Iterations 4
bounding nuTilda, min: -0.00517958 max: 0.037562 average: 0.00254634
ExecutionTime = 64.1326 s  ClockTime = 64 s

Time = 42s

smoothSolver:  Solving for Ux, Initial residual = 0.0217114, Final residual = 0.00212158, No Iterations 2
smoothSolver:  Solving for Uy, Initial residual = 0.0975028, Final residual = 0.00962124, No Iterations 2
smoothSolver:  Solving for Uz, Initial residual = 0.0766358, Final residual = 0.00733882, No Iterations 2
GAMG:  Solving for p, Initial residual = 0.000314326, Final residual = 2.11163e-06, No Iterations 3
time step continuity errors : sum local = 0.0103306, global = -0.000515971, cumulative = -0.00625976
smoothSolver:  Solving for nuTilda, Initial residual = 0.00949983, Final residual = 0.000307176, No Iterations 4
bounding nuTilda, min: -0.00520535 max: 0.0375663 average: 0.00259034
ExecutionTime = 65.1436 s  ClockTime = 65 s

Time = 43s

smoothSolver:  Solving for Ux, Initial residual = 0.0216464, Final residual = 0.00210798, No Iterations 2
smoothSolver:  Solving for Uy, Initial residual = 0.0959658, Final residual = 0.00943097, No Iterations 2
smoothSolver:  Solving for Uz, Initial residual = 0.0754756, Final residual = 0.00727179, No Iterations 2
GAMG:  Solving for p, Initial residual = 0.000279954, Final residual = 1.93997e-06, No Iterations 3
time step continuity errors : sum local = 0.0100432, global = -4.56118e-05, cumulative = -0.00630537
smoothSolver:  Solving for nuTilda, Initial residual = 0.0094898, Final residual = 0.000302279, No Iterations 4
bounding nuTilda, min: -0.0051798 max: 0.0375682 average: 0.00263309
ExecutionTime = 66.1819 s  ClockTime = 66 s

Time = 44s

smoothSolver:  Solving for Ux, Initial residual = 0.021273, Final residual = 0.00205584, No Iterations 2
smoothSolver:  Solving for Uy, Initial residual = 0.0951783, Final residual = 0.00935462, No Iterations 2
smoothSolver:  Solving for Uz, Initial residual = 0.0746684, Final residual = 0.0072213, No Iterations 2
GAMG:  Solving for p, Initial residual = 0.00024957, Final residual = 1.55796e-06, No Iterations 3
time step continuity errors : sum local = 0.0084275, global = 0.000860031, cumulative = -0.00544534
smoothSolver:  Solving for nuTilda, Initial residual = 0.00948268, Final residual = 0.0002974, No Iterations 4
bounding nuTilda, min: -0.00520516 max: 0.0375701 average: 0.00267694
ExecutionTime = 67.244 s  ClockTime = 67 s

Time = 45s

smoothSolver:  Solving for Ux, Initial residual = 0.0206012, Final residual = 0.00199154, No Iterations 2
smoothSolver:  Solving for Uy, Initial residual = 0.0946525, Final residual = 0.00937018, No Iterations 2
smoothSolver:  Solving for Uz, Initial residual = 0.0737763, Final residual = 0.00713153, No Iterations 2
GAMG:  Solving for p, Initial residual = 0.000225553, Final residual = 1.26607e-06, No Iterations 3
time step continuity errors : sum local = 0.00709629, global = 0.00107874, cumulative = -0.0043666
smoothSolver:  Solving for nuTilda, Initial residual = 0.00949033, Final residual = 0.000292815, No Iterations 4
bounding nuTilda, min: -0.00518023 max: 0.0375751 average: 0.00271949
ExecutionTime = 68.3288 s  ClockTime = 68 s

Time = 46s

smoothSolver:  Solving for Ux, Initial residual = 0.019895, Final residual = 0.0019146, No Iterations 2
smoothSolver:  Solving for Uy, Initial residual = 0.0939187, Final residual = 0.00917977, No Iterations 2
smoothSolver:  Solving for Uz, Initial residual = 0.0719753, Final residual = 0.00697335, No Iterations 2
GAMG:  Solving for p, Initial residual = 0.000209225, Final residual = 1.20841e-06, No Iterations 3
time step continuity errors : sum local = 0.00699922, global = 0.000457888, cumulative = -0.00390871
smoothSolver:  Solving for nuTilda, Initial residual = 0.00950323, Final residual = 0.000288092, No Iterations 4
bounding nuTilda, min: -0.0052049 max: 0.0375774 average: 0.00276336
ExecutionTime = 69.5608 s  ClockTime = 70 s

Time = 47s

smoothSolver:  Solving for Ux, Initial residual = 0.0194652, Final residual = 0.00184351, No Iterations 2
smoothSolver:  Solving for Uy, Initial residual = 0.0925793, Final residual = 0.00877376, No Iterations 2
smoothSolver:  Solving for Uz, Initial residual = 0.0698852, Final residual = 0.00676427, No Iterations 2
GAMG:  Solving for p, Initial residual = 0.00019721, Final residual = 1.39905e-06, No Iterations 3
time step continuity errors : sum local = 0.00836994, global = 0.000875623, cumulative = -0.00303309
smoothSolver:  Solving for nuTilda, Initial residual = 0.00953627, Final residual = 0.000283389, No Iterations 4
bounding nuTilda, min: -0.00518053 max: 0.0375779 average: 0.00280619
ExecutionTime = 70.6431 s  ClockTime = 71 s

Time = 48s

smoothSolver:  Solving for Ux, Initial residual = 0.0191404, Final residual = 0.00180738, No Iterations 2
smoothSolver:  Solving for Uy, Initial residual = 0.0907206, Final residual = 0.00836072, No Iterations 2
smoothSolver:  Solving for Uz, Initial residual = 0.0680307, Final residual = 0.00649228, No Iterations 2
GAMG:  Solving for p, Initial residual = 0.000187829, Final residual = 1.45226e-06, No Iterations 3
time step continuity errors : sum local = 0.00886353, global = 0.000682835, cumulative = -0.00235025
smoothSolver:  Solving for nuTilda, Initial residual = 0.0095838, Final residual = 0.000278864, No Iterations 4
bounding nuTilda, min: -0.0052052 max: 0.0375819 average: 0.00285057
ExecutionTime = 71.905 s  ClockTime = 72 s

Time = 49s

smoothSolver:  Solving for Ux, Initial residual = 0.0187788, Final residual = 0.00180363, No Iterations 2
smoothSolver:  Solving for Uy, Initial residual = 0.0894281, Final residual = 0.00824985, No Iterations 2
smoothSolver:  Solving for Uz, Initial residual = 0.0665128, Final residual = 0.00620678, No Iterations 2
GAMG:  Solving for p, Initial residual = 0.000178112, Final residual = 1.29677e-06, No Iterations 3
time step continuity errors : sum local = 0.0080848, global = 4.76647e-05, cumulative = -0.00230259
smoothSolver:  Solving for nuTilda, Initial residual = 0.00964702, Final residual = 0.000274838, No Iterations 4
bounding nuTilda, min: -0.00518015 max: 0.0375842 average: 0.00289393
ExecutionTime = 73.6613 s  ClockTime = 74 s

Time = 50s

smoothSolver:  Solving for Ux, Initial residual = 0.0182176, Final residual = 0.00174914, No Iterations 2
smoothSolver:  Solving for Uy, Initial residual = 0.0888663, Final residual = 0.00831753, No Iterations 2
smoothSolver:  Solving for Uz, Initial residual = 0.0652514, Final residual = 0.00604247, No Iterations 2
GAMG:  Solving for p, Initial residual = 0.000164678, Final residual = 1.01349e-06, No Iterations 3
time step continuity errors : sum local = 0.00651689, global = 7.55233e-07, cumulative = -0.00230183
smoothSolver:  Solving for nuTilda, Initial residual = 0.00972724, Final residual = 0.000270792, No Iterations 4
bounding nuTilda, min: -0.00520526 max: 0.0375847 average: 0.00293872
ExecutionTime = 74.8525 s  ClockTime = 75 s

Time = 51s

smoothSolver:  Solving for Ux, Initial residual = 0.0176676, Final residual = 0.00167265, No Iterations 2
smoothSolver:  Solving for Uy, Initial residual = 0.0883692, Final residual = 0.00833969, No Iterations 2
smoothSolver:  Solving for Uz, Initial residual = 0.0640302, Final residual = 0.00603801, No Iterations 2
GAMG:  Solving for p, Initial residual = 0.000152681, Final residual = 9.21402e-07, No Iterations 3
time step continuity errors : sum local = 0.00613989, global = -9.65862e-05, cumulative = -0.00239842
smoothSolver:  Solving for nuTilda, Initial residual = 0.00981973, Final residual = 0.000266835, No Iterations 4
bounding nuTilda, min: -0.00517999 max: 0.0375856 average: 0.00298249
ExecutionTime = 76.1852 s  ClockTime = 76 s

Time = 52s

smoothSolver:  Solving for Ux, Initial residual = 0.0173326, Final residual = 0.00161557, No Iterations 2
smoothSolver:  Solving for Uy, Initial residual = 0.087358, Final residual = 0.0081453, No Iterations 2
smoothSolver:  Solving for Uz, Initial residual = 0.0628829, Final residual = 0.00601477, No Iterations 2
GAMG:  Solving for p, Initial residual = 0.000142256, Final residual = 8.78495e-07, No Iterations 3
time step continuity errors : sum local = 0.0060702, global = -0.00021127, cumulative = -0.00260969
smoothSolver:  Solving for nuTilda, Initial residual = 0.00991287, Final residual = 0.000262862, No Iterations 4
bounding nuTilda, min: -0.00520559 max: 0.0375881 average: 0.00302771
ExecutionTime = 77.3535 s  ClockTime = 77 s

Time = 53s

smoothSolver:  Solving for Ux, Initial residual = 0.0170294, Final residual = 0.00156601, No Iterations 2
smoothSolver:  Solving for Uy, Initial residual = 0.0856651, Final residual = 0.00780771, No Iterations 2
smoothSolver:  Solving for Uz, Initial residual = 0.0619198, Final residual = 0.00589296, No Iterations 2
GAMG:  Solving for p, Initial residual = 0.000131078, Final residual = 8.23489e-07, No Iterations 3
time step continuity errors : sum local = 0.00590266, global = -0.000264538, cumulative = -0.00287423
smoothSolver:  Solving for nuTilda, Initial residual = 0.0100097, Final residual = 0.000259035, No Iterations 4
bounding nuTilda, min: -0.00517985 max: 0.0375889 average: 0.00307199
ExecutionTime = 78.3227 s  ClockTime = 78 s

Time = 54s

smoothSolver:  Solving for Ux, Initial residual = 0.0166252, Final residual = 0.00149594, No Iterations 2
smoothSolver:  Solving for Uy, Initial residual = 0.0838409, Final residual = 0.00748871, No Iterations 2
smoothSolver:  Solving for Uz, Initial residual = 0.0613252, Final residual = 0.00575784, No Iterations 2
GAMG:  Solving for p, Initial residual = 0.000119853, Final residual = 7.64408e-07, No Iterations 3
time step continuity errors : sum local = 0.00566995, global = -0.000209052, cumulative = -0.00308328
smoothSolver:  Solving for nuTilda, Initial residual = 0.0101044, Final residual = 0.00025505, No Iterations 4
bounding nuTilda, min: -0.0052053 max: 0.0375889 average: 0.00311789
ExecutionTime = 79.2457 s  ClockTime = 79 s

Time = 55s

smoothSolver:  Solving for Ux, Initial residual = 0.0161606, Final residual = 0.00143426, No Iterations 2
smoothSolver:  Solving for Uy, Initial residual = 0.0826118, Final residual = 0.0073139, No Iterations 2
smoothSolver:  Solving for Uz, Initial residual = 0.0604479, Final residual = 0.00567012, No Iterations 2
GAMG:  Solving for p, Initial residual = 0.000110028, Final residual = 7.2543e-07, No Iterations 3
time step continuity errors : sum local = 0.0055412, global = 1.34805e-05, cumulative = -0.0030698
smoothSolver:  Solving for nuTilda, Initial residual = 0.0102069, Final residual = 0.000251191, No Iterations 4
bounding nuTilda, min: -0.00517986 max: 0.0375895 average: 0.00316309
ExecutionTime = 80.1797 s  ClockTime = 80 s

Time = 56s

smoothSolver:  Solving for Ux, Initial residual = 0.015711, Final residual = 0.0013978, No Iterations 2
smoothSolver:  Solving for Uy, Initial residual = 0.0813213, Final residual = 0.00719783, No Iterations 2
smoothSolver:  Solving for Uz, Initial residual = 0.0592736, Final residual = 0.0055858, No Iterations 2
GAMG:  Solving for p, Initial residual = 0.000101624, Final residual = 6.90307e-07, No Iterations 3
time step continuity errors : sum local = 0.00542967, global = 0.000262094, cumulative = -0.0028077
smoothSolver:  Solving for nuTilda, Initial residual = 0.0103189, Final residual = 0.000247518, No Iterations 4
bounding nuTilda, min: -0.00520524 max: 0.0375909 average: 0.00321024
ExecutionTime = 81.2654 s  ClockTime = 81 s

Time = 57s

smoothSolver:  Solving for Ux, Initial residual = 0.0152863, Final residual = 0.00138622, No Iterations 2
smoothSolver:  Solving for Uy, Initial residual = 0.0794045, Final residual = 0.00704171, No Iterations 2
smoothSolver:  Solving for Uz, Initial residual = 0.0577235, Final residual = 0.00538386, No Iterations 2
GAMG:  Solving for p, Initial residual = 9.4428e-05, Final residual = 6.3483e-07, No Iterations 3
time step continuity errors : sum local = 0.00514988, global = 0.000361335, cumulative = -0.00244637
smoothSolver:  Solving for nuTilda, Initial residual = 0.0104448, Final residual = 0.000244262, No Iterations 4
bounding nuTilda, min: -0.00517993 max: 0.0375916 average: 0.00325688
ExecutionTime = 82.7607 s  ClockTime = 83 s

Time = 58s

smoothSolver:  Solving for Ux, Initial residual = 0.0148252, Final residual = 0.0013751, No Iterations 2
smoothSolver:  Solving for Uy, Initial residual = 0.0769685, Final residual = 0.0068964, No Iterations 2
smoothSolver:  Solving for Uz, Initial residual = 0.0561705, Final residual = 0.00524355, No Iterations 2
GAMG:  Solving for p, Initial residual = 8.77767e-05, Final residual = 5.52643e-07, No Iterations 3
time step continuity errors : sum local = 0.00462107, global = 0.000403928, cumulative = -0.00204244
smoothSolver:  Solving for nuTilda, Initial residual = 0.0105777, Final residual = 0.000241037, No Iterations 4
bounding nuTilda, min: -0.00520529 max: 0.0375934 average: 0.00330566
ExecutionTime = 83.978 s  ClockTime = 84 s

Time = 59s

smoothSolver:  Solving for Ux, Initial residual = 0.0143782, Final residual = 0.00135613, No Iterations 2
smoothSolver:  Solving for Uy, Initial residual = 0.0748935, Final residual = 0.00683034, No Iterations 2
smoothSolver:  Solving for Uz, Initial residual = 0.0546248, Final residual = 0.00516704, No Iterations 2
GAMG:  Solving for p, Initial residual = 8.27255e-05, Final residual = 5.09322e-07, No Iterations 3
time step continuity errors : sum local = 0.00437949, global = 0.000379832, cumulative = -0.00166261
smoothSolver:  Solving for nuTilda, Initial residual = 0.0107118, Final residual = 0.000237907, No Iterations 4
bounding nuTilda, min: -0.00518002 max: 0.0375949 average: 0.00335404
ExecutionTime = 85.3271 s  ClockTime = 85 s

Time = 60s

smoothSolver:  Solving for Ux, Initial residual = 0.0139114, Final residual = 0.00130847, No Iterations 2
smoothSolver:  Solving for Uy, Initial residual = 0.0734941, Final residual = 0.00681689, No Iterations 2
smoothSolver:  Solving for Uz, Initial residual = 0.0535202, Final residual = 0.00509986, No Iterations 2
GAMG:  Solving for p, Initial residual = 7.87754e-05, Final residual = 5.12581e-07, No Iterations 3
time step continuity errors : sum local = 0.00449383, global = 0.000100291, cumulative = -0.00156232
smoothSolver:  Solving for nuTilda, Initial residual = 0.0108508, Final residual = 0.000234563, No Iterations 4
bounding nuTilda, min: -0.00520507 max: 0.0375956 average: 0.00340454
ExecutionTime = 86.3577 s  ClockTime = 86 s

Time = 61s

smoothSolver:  Solving for Ux, Initial residual = 0.0134881, Final residual = 0.00125242, No Iterations 2
smoothSolver:  Solving for Uy, Initial residual = 0.0729658, Final residual = 0.00683855, No Iterations 2
smoothSolver:  Solving for Uz, Initial residual = 0.0528049, Final residual = 0.00503475, No Iterations 2
GAMG:  Solving for p, Initial residual = 7.60714e-05, Final residual = 5.69654e-07, No Iterations 3
time step continuity errors : sum local = 0.00504264, global = -0.000122073, cumulative = -0.00168439
smoothSolver:  Solving for nuTilda, Initial residual = 0.0109881, Final residual = 0.000231167, No Iterations 4
bounding nuTilda, min: -0.00518015 max: 0.0375959 average: 0.00345449
ExecutionTime = 87.3785 s  ClockTime = 87 s

Time = 62s

smoothSolver:  Solving for Ux, Initial residual = 0.013142, Final residual = 0.00119029, No Iterations 2
smoothSolver:  Solving for Uy, Initial residual = 0.0727614, Final residual = 0.00677533, No Iterations 2
smoothSolver:  Solving for Uz, Initial residual = 0.0522611, Final residual = 0.00494649, No Iterations 2
GAMG:  Solving for p, Initial residual = 7.36472e-05, Final residual = 6.27192e-07, No Iterations 3
time step continuity errors : sum local = 0.00557077, global = 2.53762e-05, cumulative = -0.00165902
smoothSolver:  Solving for nuTilda, Initial residual = 0.0111248, Final residual = 0.000227548, No Iterations 4
bounding nuTilda, min: -0.00520528 max: 0.0375972 average: 0.00350638
ExecutionTime = 88.3962 s  ClockTime = 88 s

Time = 63s

smoothSolver:  Solving for Ux, Initial residual = 0.012881, Final residual = 0.00115404, No Iterations 2
smoothSolver:  Solving for Uy, Initial residual = 0.072359, Final residual = 0.00668078, No Iterations 2
smoothSolver:  Solving for Uz, Initial residual = 0.0521721, Final residual = 0.00492738, No Iterations 2
GAMG:  Solving for p, Initial residual = 7.14861e-05, Final residual = 4.9555e-07, No Iterations 3
time step continuity errors : sum local = 0.00442254, global = -9.10224e-05, cumulative = -0.00175004
smoothSolver:  Solving for nuTilda, Initial residual = 0.0112652, Final residual = 0.000223891, No Iterations 4
bounding nuTilda, min: -0.0051802 max: 0.0375981 average: 0.0035575
ExecutionTime = 89.7931 s  ClockTime = 90 s

Time = 64s

smoothSolver:  Solving for Ux, Initial residual = 0.0126897, Final residual = 0.00113733, No Iterations 2
smoothSolver:  Solving for Uy, Initial residual = 0.0717957, Final residual = 0.00661244, No Iterations 2
smoothSolver:  Solving for Uz, Initial residual = 0.0523155, Final residual = 0.00492416, No Iterations 2
GAMG:  Solving for p, Initial residual = 6.96189e-05, Final residual = 4.31743e-07, No Iterations 3
time step continuity errors : sum local = 0.00386373, global = -9.61463e-05, cumulative = -0.00184618
smoothSolver:  Solving for nuTilda, Initial residual = 0.0114, Final residual = 0.000220174, No Iterations 4
bounding nuTilda, min: -0.00520518 max: 0.0375983 average: 0.00361033
ExecutionTime = 91.1377 s  ClockTime = 91 s

Time = 65s

smoothSolver:  Solving for Ux, Initial residual = 0.0124769, Final residual = 0.00112631, No Iterations 2
smoothSolver:  Solving for Uy, Initial residual = 0.071392, Final residual = 0.0065274, No Iterations 2
smoothSolver:  Solving for Uz, Initial residual = 0.0523334, Final residual = 0.00487727, No Iterations 2
GAMG:  Solving for p, Initial residual = 6.76252e-05, Final residual = 4.35147e-07, No Iterations 3
time step continuity errors : sum local = 0.0039106, global = 0.000199574, cumulative = -0.00164661
smoothSolver:  Solving for nuTilda, Initial residual = 0.0115305, Final residual = 0.000216451, No Iterations 4
bounding nuTilda, min: -0.00518014 max: 0.0375981 average: 0.0036622
ExecutionTime = 92.2308 s  ClockTime = 92 s

Time = 66s

smoothSolver:  Solving for Ux, Initial residual = 0.0122745, Final residual = 0.00111234, No Iterations 2
smoothSolver:  Solving for Uy, Initial residual = 0.0713321, Final residual = 0.00655859, No Iterations 2
smoothSolver:  Solving for Uz, Initial residual = 0.0521638, Final residual = 0.00484088, No Iterations 2
GAMG:  Solving for p, Initial residual = 6.58885e-05, Final residual = 4.80584e-07, No Iterations 3
time step continuity errors : sum local = 0.00431909, global = 0.000276543, cumulative = -0.00137007
smoothSolver:  Solving for nuTilda, Initial residual = 0.0116423, Final residual = 0.000212415, No Iterations 4
bounding nuTilda, min: -0.00520534 max: 0.0375976 average: 0.00371565
ExecutionTime = 93.2229 s  ClockTime = 93 s

Time = 67s

smoothSolver:  Solving for Ux, Initial residual = 0.0121403, Final residual = 0.00109067, No Iterations 2
smoothSolver:  Solving for Uy, Initial residual = 0.0712195, Final residual = 0.0065898, No Iterations 2
smoothSolver:  Solving for Uz, Initial residual = 0.0518085, Final residual = 0.00482925, No Iterations 2
GAMG:  Solving for p, Initial residual = 6.36844e-05, Final residual = 5.01905e-07, No Iterations 3
time step continuity errors : sum local = 0.00451945, global = 0.000237398, cumulative = -0.00113267
smoothSolver:  Solving for nuTilda, Initial residual = 0.0117318, Final residual = 0.000208202, No Iterations 4
bounding nuTilda, min: -0.00517998 max: 0.0382447 average: 0.00376841
ExecutionTime = 94.2104 s  ClockTime = 94 s

Time = 68s

smoothSolver:  Solving for Ux, Initial residual = 0.0119744, Final residual = 0.0010565, No Iterations 2
smoothSolver:  Solving for Uy, Initial residual = 0.0704411, Final residual = 0.0064554, No Iterations 2
smoothSolver:  Solving for Uz, Initial residual = 0.0513326, Final residual = 0.00476399, No Iterations 2
GAMG:  Solving for p, Initial residual = 6.08485e-05, Final residual = 4.63456e-07, No Iterations 3
time step continuity errors : sum local = 0.00420529, global = 0.000234679, cumulative = -0.00089799
smoothSolver:  Solving for nuTilda, Initial residual = 0.0118145, Final residual = 0.00116673, No Iterations 2
bounding nuTilda, min: -0.00520478 max: 0.0390706 average: 0.00381863
ExecutionTime = 95.2718 s  ClockTime = 95 s

Time = 69s

smoothSolver:  Solving for Ux, Initial residual = 0.0117472, Final residual = 0.00102285, No Iterations 2
smoothSolver:  Solving for Uy, Initial residual = 0.0692311, Final residual = 0.00629579, No Iterations 2
smoothSolver:  Solving for Uz, Initial residual = 0.0509739, Final residual = 0.00472196, No Iterations 2
GAMG:  Solving for p, Initial residual = 5.81155e-05, Final residual = 3.85839e-07, No Iterations 3
time step continuity errors : sum local = 0.00352632, global = 0.000138747, cumulative = -0.000759243
smoothSolver:  Solving for nuTilda, Initial residual = 0.0118787, Final residual = 0.00115643, No Iterations 2
bounding nuTilda, min: -0.00515507 max: 0.0399237 average: 0.0038682
ExecutionTime = 96.2409 s  ClockTime = 96 s

Time = 70s

smoothSolver:  Solving for Ux, Initial residual = 0.011406, Final residual = 0.000993919, No Iterations 2
smoothSolver:  Solving for Uy, Initial residual = 0.0682505, Final residual = 0.0061602, No Iterations 2
smoothSolver:  Solving for Uz, Initial residual = 0.0502215, Final residual = 0.00465554, No Iterations 2
GAMG:  Solving for p, Initial residual = 5.52568e-05, Final residual = 3.54597e-07, No Iterations 3
time step continuity errors : sum local = 0.00326357, global = -0.000206687, cumulative = -0.000965929
smoothSolver:  Solving for nuTilda, Initial residual = 0.0119135, Final residual = 0.00114474, No Iterations 2
bounding nuTilda, min: -0.00520207 max: 0.0407101 average: 0.00391969
ExecutionTime = 97.1967 s  ClockTime = 97 s

Time = 71s

smoothSolver:  Solving for Ux, Initial residual = 0.0110179, Final residual = 0.000970681, No Iterations 2
smoothSolver:  Solving for Uy, Initial residual = 0.0676622, Final residual = 0.00609673, No Iterations 2
smoothSolver:  Solving for Uz, Initial residual = 0.0494602, Final residual = 0.00457053, No Iterations 2
GAMG:  Solving for p, Initial residual = 5.22625e-05, Final residual = 3.47079e-07, No Iterations 3
time step continuity errors : sum local = 0.00322783, global = -0.000389554, cumulative = -0.00135548
smoothSolver:  Solving for nuTilda, Initial residual = 0.0119218, Final residual = 0.00113327, No Iterations 2
bounding nuTilda, min: -0.00513532 max: 0.0417622 average: 0.00397144
ExecutionTime = 98.1971 s  ClockTime = 98 s

Time = 72s

smoothSolver:  Solving for Ux, Initial residual = 0.0106357, Final residual = 0.000949781, No Iterations 2
smoothSolver:  Solving for Uy, Initial residual = 0.0668836, Final residual = 0.00606876, No Iterations 2
smoothSolver:  Solving for Uz, Initial residual = 0.0482527, Final residual = 0.00447803, No Iterations 2
GAMG:  Solving for p, Initial residual = 4.98959e-05, Final residual = 4.34082e-07, No Iterations 3
time step continuity errors : sum local = 0.004078, global = -0.000192344, cumulative = -0.00154783
smoothSolver:  Solving for nuTilda, Initial residual = 0.0119019, Final residual = 0.00112207, No Iterations 2
bounding nuTilda, min: -0.00519825 max: 0.0428292 average: 0.0040249
ExecutionTime = 99.1529 s  ClockTime = 99 s

Time = 73s

smoothSolver:  Solving for Ux, Initial residual = 0.0102607, Final residual = 0.000925265, No Iterations 2
smoothSolver:  Solving for Uy, Initial residual = 0.0654041, Final residual = 0.00599583, No Iterations 2
smoothSolver:  Solving for Uz, Initial residual = 0.0465039, Final residual = 0.00435669, No Iterations 2
GAMG:  Solving for p, Initial residual = 4.77202e-05, Final residual = 4.15253e-07, No Iterations 3
time step continuity errors : sum local = 0.00396864, global = -6.79727e-05, cumulative = -0.0016158
smoothSolver:  Solving for nuTilda, Initial residual = 0.0118506, Final residual = 0.00110941, No Iterations 2
bounding nuTilda, min: -0.00514762 max: 0.0439005 average: 0.00407849
ExecutionTime = 100.145 s  ClockTime = 100 s

Time = 74s

smoothSolver:  Solving for Ux, Initial residual = 0.0098727, Final residual = 0.000885949, No Iterations 2
smoothSolver:  Solving for Uy, Initial residual = 0.0635529, Final residual = 0.00592341, No Iterations 2
smoothSolver:  Solving for Uz, Initial residual = 0.0446684, Final residual = 0.00428186, No Iterations 2
GAMG:  Solving for p, Initial residual = 4.54051e-05, Final residual = 2.98013e-07, No Iterations 3
time step continuity errors : sum local = 0.0028959, global = -0.000258956, cumulative = -0.00187476
smoothSolver:  Solving for nuTilda, Initial residual = 0.0117853, Final residual = 0.00109549, No Iterations 2
bounding nuTilda, min: -0.00519918 max: 0.0447863 average: 0.00413363
ExecutionTime = 101.099 s  ClockTime = 101 s

Time = 75s

smoothSolver:  Solving for Ux, Initial residual = 0.00948949, Final residual = 0.000849645, No Iterations 2
smoothSolver:  Solving for Uy, Initial residual = 0.0618263, Final residual = 0.0058352, No Iterations 2
smoothSolver:  Solving for Uz, Initial residual = 0.0431324, Final residual = 0.00426331, No Iterations 2
GAMG:  Solving for p, Initial residual = 4.35828e-05, Final residual = 2.7579e-07, No Iterations 3
time step continuity errors : sum local = 0.00269322, global = -2.16075e-05, cumulative = -0.00189636
smoothSolver:  Solving for nuTilda, Initial residual = 0.0116902, Final residual = 0.00108244, No Iterations 2
bounding nuTilda, min: -0.00513638 max: 0.0456551 average: 0.00418891
ExecutionTime = 102.057 s  ClockTime = 102 s

Time = 76s

smoothSolver:  Solving for Ux, Initial residual = 0.00908699, Final residual = 0.000820275, No Iterations 2
smoothSolver:  Solving for Uy, Initial residual = 0.0603517, Final residual = 0.00572173, No Iterations 2
smoothSolver:  Solving for Uz, Initial residual = 0.0419665, Final residual = 0.000767965, No Iterations 4
GAMG:  Solving for p, Initial residual = 4.18948e-05, Final residual = 2.84999e-07, No Iterations 3
time step continuity errors : sum local = 0.00280257, global = 0.000324166, cumulative = -0.0015722
smoothSolver:  Solving for nuTilda, Initial residual = 0.0115754, Final residual = 0.00106787, No Iterations 2
bounding nuTilda, min: -0.00519756 max: 0.0466134 average: 0.00424538
ExecutionTime = 103.112 s  ClockTime = 103 s

Time = 77s

smoothSolver:  Solving for Ux, Initial residual = 0.00879361, Final residual = 0.000797958, No Iterations 2
smoothSolver:  Solving for Uy, Initial residual = 0.0592811, Final residual = 0.00562291, No Iterations 2
smoothSolver:  Solving for Uz, Initial residual = 0.0400976, Final residual = 0.00390692, No Iterations 2
GAMG:  Solving for p, Initial residual = 4.04402e-05, Final residual = 3.83079e-07, No Iterations 3
time step continuity errors : sum local = 0.00377541, global = 0.000127296, cumulative = -0.0014449
smoothSolver:  Solving for nuTilda, Initial residual = 0.0114451, Final residual = 0.0010504, No Iterations 2
bounding nuTilda, min: -0.00514724 max: 0.0475711 average: 0.00430152
ExecutionTime = 104.091 s  ClockTime = 104 s

Time = 78s

smoothSolver:  Solving for Ux, Initial residual = 0.00859949, Final residual = 0.000788692, No Iterations 2
smoothSolver:  Solving for Uy, Initial residual = 0.0578606, Final residual = 0.005568, No Iterations 2
smoothSolver:  Solving for Uz, Initial residual = 0.0389496, Final residual = 0.00384112, No Iterations 2
GAMG:  Solving for p, Initial residual = 4.00712e-05, Final residual = 3.41569e-07, No Iterations 3
time step continuity errors : sum local = 0.00328133, global = 4.89225e-05, cumulative = -0.00139598
smoothSolver:  Solving for nuTilda, Initial residual = 0.0113242, Final residual = 0.00103204, No Iterations 2
bounding nuTilda, min: -0.00519886 max: 0.0485561 average: 0.00435873
ExecutionTime = 105.053 s  ClockTime = 105 s

Time = 79s

smoothSolver:  Solving for Ux, Initial residual = 0.00841242, Final residual = 0.000776668, No Iterations 2
smoothSolver:  Solving for Uy, Initial residual = 0.0560251, Final residual = 0.00546482, No Iterations 2
smoothSolver:  Solving for Uz, Initial residual = 0.0378795, Final residual = 0.000697878, No Iterations 4
GAMG:  Solving for p, Initial residual = 3.95419e-05, Final residual = 2.50435e-07, No Iterations 3
time step continuity errors : sum local = 0.00235472, global = 0.000265306, cumulative = -0.00113067
smoothSolver:  Solving for nuTilda, Initial residual = 0.0112031, Final residual = 0.0010122, No Iterations 2
bounding nuTilda, min: -0.00513516 max: 0.0494476 average: 0.00441566
ExecutionTime = 106.013 s  ClockTime = 106 s

Time = 80s

smoothSolver:  Solving for Ux, Initial residual = 0.00822291, Final residual = 0.000753523, No Iterations 2
smoothSolver:  Solving for Uy, Initial residual = 0.0548041, Final residual = 0.00536447, No Iterations 2
smoothSolver:  Solving for Uz, Initial residual = 0.0362442, Final residual = 0.00360472, No Iterations 2
GAMG:  Solving for p, Initial residual = 3.85874e-05, Final residual = 2.33141e-07, No Iterations 3
time step continuity errors : sum local = 0.00216107, global = 0.000226788, cumulative = -0.000903886
smoothSolver:  Solving for nuTilda, Initial residual = 0.01111, Final residual = 0.000991871, No Iterations 2
bounding nuTilda, min: -0.00519763 max: 0.0502471 average: 0.00447401
ExecutionTime = 106.99 s  ClockTime = 107 s

Time = 81s

smoothSolver:  Solving for Ux, Initial residual = 0.00799728, Final residual = 0.000721475, No Iterations 2
smoothSolver:  Solving for Uy, Initial residual = 0.0537166, Final residual = 0.0052071, No Iterations 2
smoothSolver:  Solving for Uz, Initial residual = 0.0357124, Final residual = 0.000657334, No Iterations 4
GAMG:  Solving for p, Initial residual = 3.81838e-05, Final residual = 2.31547e-07, No Iterations 3
time step continuity errors : sum local = 0.00210755, global = 0.000143855, cumulative = -0.000760031
smoothSolver:  Solving for nuTilda, Initial residual = 0.0110182, Final residual = 0.000971605, No Iterations 2
bounding nuTilda, min: -0.00514643 max: 0.051127 average: 0.00453238
ExecutionTime = 107.966 s  ClockTime = 108 s

Time = 82s

smoothSolver:  Solving for Ux, Initial residual = 0.00778376, Final residual = 0.000692863, No Iterations 2
smoothSolver:  Solving for Uy, Initial residual = 0.0529092, Final residual = 0.0050082, No Iterations 2
smoothSolver:  Solving for Uz, Initial residual = 0.034632, Final residual = 0.00337533, No Iterations 2
GAMG:  Solving for p, Initial residual = 3.80527e-05, Final residual = 2.25528e-07, No Iterations 3
time step continuity errors : sum local = 0.00201923, global = 8.17621e-05, cumulative = -0.000678269
smoothSolver:  Solving for nuTilda, Initial residual = 0.0109389, Final residual = 0.000951973, No Iterations 2
bounding nuTilda, min: -0.00519905 max: 0.0520637 average: 0.00459221
ExecutionTime = 108.927 s  ClockTime = 109 s

Time = 83s

smoothSolver:  Solving for Ux, Initial residual = 0.00756109, Final residual = 0.000664611, No Iterations 2
smoothSolver:  Solving for Uy, Initial residual = 0.0519581, Final residual = 0.00478437, No Iterations 2
smoothSolver:  Solving for Uz, Initial residual = 0.0343555, Final residual = 0.0033166, No Iterations 2
GAMG:  Solving for p, Initial residual = 3.79254e-05, Final residual = 2.29537e-07, No Iterations 3
time step continuity errors : sum local = 0.00204124, global = 2.83196e-05, cumulative = -0.00064995
smoothSolver:  Solving for nuTilda, Initial residual = 0.01087, Final residual = 0.000932557, No Iterations 2
bounding nuTilda, min: -0.00513476 max: 0.0530984 average: 0.00465203
ExecutionTime = 109.891 s  ClockTime = 110 s

Time = 84s

smoothSolver:  Solving for Ux, Initial residual = 0.00736134, Final residual = 0.00063876, No Iterations 2
smoothSolver:  Solving for Uy, Initial residual = 0.0507174, Final residual = 0.00457974, No Iterations 2
smoothSolver:  Solving for Uz, Initial residual = 0.0340198, Final residual = 0.0032187, No Iterations 2
GAMG:  Solving for p, Initial residual = 3.81464e-05, Final residual = 2.4242e-07, No Iterations 3
time step continuity errors : sum local = 0.0021523, global = 1.9933e-06, cumulative = -0.000647956
smoothSolver:  Solving for nuTilda, Initial residual = 0.0108114, Final residual = 0.000914388, No Iterations 2
bounding nuTilda, min: -0.00519756 max: 0.0541324 average: 0.00471334
ExecutionTime = 110.847 s  ClockTime = 111 s

Time = 85s

smoothSolver:  Solving for Ux, Initial residual = 0.00721833, Final residual = 0.000620413, No Iterations 2
smoothSolver:  Solving for Uy, Initial residual = 0.0492453, Final residual = 0.00439801, No Iterations 2
smoothSolver:  Solving for Uz, Initial residual = 0.0335537, Final residual = 0.00308496, No Iterations 2
GAMG:  Solving for p, Initial residual = 3.83185e-05, Final residual = 2.49643e-07, No Iterations 3
time step continuity errors : sum local = 0.00221625, global = -4.08286e-05, cumulative = -0.000688785
smoothSolver:  Solving for nuTilda, Initial residual = 0.0107538, Final residual = 0.000895003, No Iterations 2
bounding nuTilda, min: -0.00514619 max: 0.0550853 average: 0.0047746
ExecutionTime = 111.82 s  ClockTime = 112 s

Time = 86s

smoothSolver:  Solving for Ux, Initial residual = 0.00708766, Final residual = 0.000605357, No Iterations 2
smoothSolver:  Solving for Uy, Initial residual = 0.0479859, Final residual = 0.00424094, No Iterations 2
smoothSolver:  Solving for Uz, Initial residual = 0.0329211, Final residual = 0.00295145, No Iterations 2
GAMG:  Solving for p, Initial residual = 3.88708e-05, Final residual = 2.51512e-07, No Iterations 3
time step continuity errors : sum local = 0.00220128, global = -0.000136214, cumulative = -0.000824999
smoothSolver:  Solving for nuTilda, Initial residual = 0.0107031, Final residual = 0.000875355, No Iterations 2
bounding nuTilda, min: -0.00519914 max: 0.0559661 average: 0.0048375
ExecutionTime = 112.767 s  ClockTime = 113 s

Time = 87s

smoothSolver:  Solving for Ux, Initial residual = 0.00691889, Final residual = 0.000587647, No Iterations 2
smoothSolver:  Solving for Uy, Initial residual = 0.0470338, Final residual = 0.00412485, No Iterations 2
smoothSolver:  Solving for Uz, Initial residual = 0.0322787, Final residual = 0.00285556, No Iterations 2
GAMG:  Solving for p, Initial residual = 3.86946e-05, Final residual = 2.51548e-07, No Iterations 3
time step continuity errors : sum local = 0.00219351, global = -0.000232399, cumulative = -0.0010574
smoothSolver:  Solving for nuTilda, Initial residual = 0.010658, Final residual = 0.000856846, No Iterations 2
bounding nuTilda, min: -0.00513469 max: 0.0569168 average: 0.00490056
ExecutionTime = 113.778 s  ClockTime = 114 s

Time = 88s

smoothSolver:  Solving for Ux, Initial residual = 0.00671957, Final residual = 0.000566844, No Iterations 2
smoothSolver:  Solving for Uy, Initial residual = 0.0463016, Final residual = 0.00407554, No Iterations 2
smoothSolver:  Solving for Uz, Initial residual = 0.0316011, Final residual = 0.00279716, No Iterations 2
GAMG:  Solving for p, Initial residual = 3.80812e-05, Final residual = 2.47274e-07, No Iterations 3
time step continuity errors : sum local = 0.00215247, global = -0.000283812, cumulative = -0.00134121
smoothSolver:  Solving for nuTilda, Initial residual = 0.0106208, Final residual = 0.000840017, No Iterations 2
bounding nuTilda, min: -0.00519757 max: 0.0578855 average: 0.00496533
ExecutionTime = 114.736 s  ClockTime = 115 s

Time = 89s

smoothSolver:  Solving for Ux, Initial residual = 0.00652176, Final residual = 0.000546281, No Iterations 2
smoothSolver:  Solving for Uy, Initial residual = 0.0454053, Final residual = 0.00401948, No Iterations 2
smoothSolver:  Solving for Uz, Initial residual = 0.030947, Final residual = 0.00273813, No Iterations 2
GAMG:  Solving for p, Initial residual = 3.8045e-05, Final residual = 2.40508e-07, No Iterations 3
time step continuity errors : sum local = 0.00208257, global = -0.00028842, cumulative = -0.00162963
smoothSolver:  Solving for nuTilda, Initial residual = 0.0105878, Final residual = 0.000823894, No Iterations 2
bounding nuTilda, min: -0.00514619 max: 0.0588237 average: 0.0050304
ExecutionTime = 115.711 s  ClockTime = 116 s

Time = 90s

smoothSolver:  Solving for Ux, Initial residual = 0.00633736, Final residual = 0.000523835, No Iterations 2
smoothSolver:  Solving for Uy, Initial residual = 0.0442798, Final residual = 0.00390852, No Iterations 2
smoothSolver:  Solving for Uz, Initial residual = 0.030392, Final residual = 0.00265456, No Iterations 2
GAMG:  Solving for p, Initial residual = 3.81853e-05, Final residual = 2.33958e-07, No Iterations 3
time step continuity errors : sum local = 0.00201705, global = -0.000238859, cumulative = -0.00186849
smoothSolver:  Solving for nuTilda, Initial residual = 0.01055, Final residual = 0.000807308, No Iterations 2
bounding nuTilda, min: -0.00519894 max: 0.0598216 average: 0.00509705
ExecutionTime = 116.836 s  ClockTime = 117 s

Time = 91s

smoothSolver:  Solving for Ux, Initial residual = 0.00616246, Final residual = 0.000500846, No Iterations 2
smoothSolver:  Solving for Uy, Initial residual = 0.0429995, Final residual = 0.00373377, No Iterations 2
smoothSolver:  Solving for Uz, Initial residual = 0.0299065, Final residual = 0.0025419, No Iterations 2
GAMG:  Solving for p, Initial residual = 3.7595e-05, Final residual = 2.27621e-07, No Iterations 3
time step continuity errors : sum local = 0.00195393, global = -0.000120852, cumulative = -0.00198934
smoothSolver:  Solving for nuTilda, Initial residual = 0.010501, Final residual = 0.000790159, No Iterations 2
bounding nuTilda, min: -0.00513474 max: 0.06078 average: 0.00516362
ExecutionTime = 117.822 s  ClockTime = 118 s

Time = 92s

smoothSolver:  Solving for Ux, Initial residual = 0.00596428, Final residual = 0.000479206, No Iterations 2
smoothSolver:  Solving for Uy, Initial residual = 0.041744, Final residual = 0.00353754, No Iterations 2
smoothSolver:  Solving for Uz, Initial residual = 0.0292751, Final residual = 0.00242758, No Iterations 2
GAMG:  Solving for p, Initial residual = 3.66049e-05, Final residual = 2.22862e-07, No Iterations 3
time step continuity errors : sum local = 0.00189394, global = 5.88542e-05, cumulative = -0.00193049
smoothSolver:  Solving for nuTilda, Initial residual = 0.0104552, Final residual = 0.000772713, No Iterations 2
bounding nuTilda, min: -0.00519756 max: 0.0616984 average: 0.00523159
ExecutionTime = 118.826 s  ClockTime = 119 s

Time = 93s

smoothSolver:  Solving for Ux, Initial residual = 0.0057509, Final residual = 0.000459158, No Iterations 2
smoothSolver:  Solving for Uy, Initial residual = 0.040526, Final residual = 0.00337185, No Iterations 2
smoothSolver:  Solving for Uz, Initial residual = 0.0284968, Final residual = 0.00231396, No Iterations 2
GAMG:  Solving for p, Initial residual = 3.54824e-05, Final residual = 2.36306e-07, No Iterations 3
time step continuity errors : sum local = 0.0019789, global = 0.000149236, cumulative = -0.00178125
smoothSolver:  Solving for nuTilda, Initial residual = 0.0104027, Final residual = 0.000754576, No Iterations 2
bounding nuTilda, min: -0.00514633 max: 0.0625941 average: 0.00529934
ExecutionTime = 119.821 s  ClockTime = 120 s

Time = 94s

smoothSolver:  Solving for Ux, Initial residual = 0.00554698, Final residual = 0.000440366, No Iterations 2
smoothSolver:  Solving for Uy, Initial residual = 0.0393429, Final residual = 0.00323548, No Iterations 2
smoothSolver:  Solving for Uz, Initial residual = 0.0277162, Final residual = 0.00221092, No Iterations 2
GAMG:  Solving for p, Initial residual = 3.53941e-05, Final residual = 2.74489e-07, No Iterations 3
time step continuity errors : sum local = 0.00222542, global = 8.24876e-05, cumulative = -0.00169876
smoothSolver:  Solving for nuTilda, Initial residual = 0.0103514, Final residual = 0.000735496, No Iterations 2
bounding nuTilda, min: -0.00519908 max: 0.0635303 average: 0.00536824
ExecutionTime = 120.794 s  ClockTime = 121 s

Time = 95s

smoothSolver:  Solving for Ux, Initial residual = 0.0053687, Final residual = 0.000429714, No Iterations 2
smoothSolver:  Solving for Uy, Initial residual = 0.038144, Final residual = 0.00312589, No Iterations 2
smoothSolver:  Solving for Uz, Initial residual = 0.0269336, Final residual = 0.0021076, No Iterations 2
GAMG:  Solving for p, Initial residual = 3.56008e-05, Final residual = 2.42776e-07, No Iterations 3
time step continuity errors : sum local = 0.0019065, global = 0.000121912, cumulative = -0.00157685
smoothSolver:  Solving for nuTilda, Initial residual = 0.0102894, Final residual = 0.00071626, No Iterations 2
bounding nuTilda, min: -0.00513476 max: 0.0644406 average: 0.00543705
ExecutionTime = 121.744 s  ClockTime = 122 s

Time = 96s

smoothSolver:  Solving for Ux, Initial residual = 0.00518678, Final residual = 0.000414324, No Iterations 2
smoothSolver:  Solving for Uy, Initial residual = 0.0368147, Final residual = 0.0030082, No Iterations 2
smoothSolver:  Solving for Uz, Initial residual = 0.0260674, Final residual = 0.0020092, No Iterations 2
GAMG:  Solving for p, Initial residual = 3.5324e-05, Final residual = 1.9242e-07, No Iterations 3
time step continuity errors : sum local = 0.00147805, global = 0.000199634, cumulative = -0.00137722
smoothSolver:  Solving for nuTilda, Initial residual = 0.0102212, Final residual = 0.000696424, No Iterations 2
bounding nuTilda, min: -0.00519754 max: 0.065325 average: 0.00550722
ExecutionTime = 122.75 s  ClockTime = 123 s

Time = 97s

smoothSolver:  Solving for Ux, Initial residual = 0.00498616, Final residual = 0.000395534, No Iterations 2
smoothSolver:  Solving for Uy, Initial residual = 0.0353714, Final residual = 0.0028726, No Iterations 2
smoothSolver:  Solving for Uz, Initial residual = 0.0251442, Final residual = 0.00193456, No Iterations 2
GAMG:  Solving for p, Initial residual = 3.41381e-05, Final residual = 1.89419e-07, No Iterations 3
time step continuity errors : sum local = 0.00143682, global = 7.70143e-05, cumulative = -0.0013002
smoothSolver:  Solving for nuTilda, Initial residual = 0.0101549, Final residual = 0.000677199, No Iterations 2
bounding nuTilda, min: -0.00514624 max: 0.0662368 average: 0.00557723
ExecutionTime = 123.739 s  ClockTime = 124 s

Time = 98s

smoothSolver:  Solving for Ux, Initial residual = 0.00476999, Final residual = 0.000377842, No Iterations 2
smoothSolver:  Solving for Uy, Initial residual = 0.0338578, Final residual = 0.00273636, No Iterations 2
smoothSolver:  Solving for Uz, Initial residual = 0.0241907, Final residual = 0.00185611, No Iterations 2
GAMG:  Solving for p, Initial residual = 3.29175e-05, Final residual = 2.03202e-07, No Iterations 3
time step continuity errors : sum local = 0.00153156, global = -6.32073e-05, cumulative = -0.00136341
smoothSolver:  Solving for nuTilda, Initial residual = 0.0100779, Final residual = 0.000658534, No Iterations 2
bounding nuTilda, min: -0.0051992 max: 0.06713 average: 0.00564849
ExecutionTime = 124.756 s  ClockTime = 125 s

Time = 99s

smoothSolver:  Solving for Ux, Initial residual = 0.00455817, Final residual = 0.000361519, No Iterations 2
smoothSolver:  Solving for Uy, Initial residual = 0.0324035, Final residual = 0.00261656, No Iterations 2
smoothSolver:  Solving for Uz, Initial residual = 0.023189, Final residual = 0.00176751, No Iterations 2
GAMG:  Solving for p, Initial residual = 3.11797e-05, Final residual = 2.14568e-07, No Iterations 3
time step continuity errors : sum local = 0.00161419, global = -0.000141945, cumulative = -0.00150536
smoothSolver:  Solving for nuTilda, Initial residual = 0.010009, Final residual = 0.000640794, No Iterations 2
bounding nuTilda, min: -0.00513472 max: 0.0681282 average: 0.00571948
ExecutionTime = 125.822 s  ClockTime = 126 s

Time = 100s

smoothSolver:  Solving for Ux, Initial residual = 0.00437397, Final residual = 0.000347212, No Iterations 2
smoothSolver:  Solving for Uy, Initial residual = 0.0309643, Final residual = 0.00249281, No Iterations 2
smoothSolver:  Solving for Uz, Initial residual = 0.0221964, Final residual = 0.00168295, No Iterations 2
GAMG:  Solving for p, Initial residual = 2.95401e-05, Final residual = 2.04249e-07, No Iterations 3
time step continuity errors : sum local = 0.00153701, global = -0.000144537, cumulative = -0.00164989
smoothSolver:  Solving for nuTilda, Initial residual = 0.00994263, Final residual = 0.000624875, No Iterations 2
bounding nuTilda, min: -0.0051977 max: 0.0692299 average: 0.00579152
ExecutionTime = 127.103 s  ClockTime = 127 s

Time = 101s

smoothSolver:  Solving for Ux, Initial residual = 0.00423194, Final residual = 0.000335176, No Iterations 2
smoothSolver:  Solving for Uy, Initial residual = 0.0297011, Final residual = 0.00236558, No Iterations 2
smoothSolver:  Solving for Uz, Initial residual = 0.02129, Final residual = 0.00162485, No Iterations 2
GAMG:  Solving for p, Initial residual = 2.8047e-05, Final residual = 1.818e-07, No Iterations 3
time step continuity errors : sum local = 0.00137424, global = -0.000108626, cumulative = -0.00175852
smoothSolver:  Solving for nuTilda, Initial residual = 0.00988205, Final residual = 0.000610355, No Iterations 2
bounding nuTilda, min: -0.0051462 max: 0.0703068 average: 0.00586335
ExecutionTime = 128.13 s  ClockTime = 128 s

Time = 102s

smoothSolver:  Solving for Ux, Initial residual = 0.00411333, Final residual = 0.000326223, No Iterations 2
smoothSolver:  Solving for Uy, Initial residual = 0.028631, Final residual = 0.00224882, No Iterations 2
smoothSolver:  Solving for Uz, Initial residual = 0.0205204, Final residual = 0.00159421, No Iterations 2
GAMG:  Solving for p, Initial residual = 2.67192e-05, Final residual = 1.66058e-07, No Iterations 3
time step continuity errors : sum local = 0.00126381, global = -4.91188e-05, cumulative = -0.00180764
smoothSolver:  Solving for nuTilda, Initial residual = 0.00982704, Final residual = 0.000596599, No Iterations 2
bounding nuTilda, min: -0.00519901 max: 0.0713549 average: 0.0059364
ExecutionTime = 129.183 s  ClockTime = 129 s

Time = 103s

smoothSolver:  Solving for Ux, Initial residual = 0.00399817, Final residual = 0.000322248, No Iterations 2
smoothSolver:  Solving for Uy, Initial residual = 0.0275785, Final residual = 0.00216195, No Iterations 2
smoothSolver:  Solving for Uz, Initial residual = 0.0198975, Final residual = 0.0015768, No Iterations 2
GAMG:  Solving for p, Initial residual = 2.54469e-05, Final residual = 1.59309e-07, No Iterations 3
time step continuity errors : sum local = 0.00122319, global = 1.58209e-05, cumulative = -0.00179182
smoothSolver:  Solving for nuTilda, Initial residual = 0.00977727, Final residual = 0.000584326, No Iterations 2
bounding nuTilda, min: -0.00513469 max: 0.0723688 average: 0.00600928
ExecutionTime = 130.561 s  ClockTime = 131 s

Time = 104s

[...]

smoothSolver:  Solving for Ux, Initial residual = 7.22302e-06, Final residual = 2.22901e-07, No Iterations 4
smoothSolver:  Solving for Uy, Initial residual = 2.51477e-05, Final residual = 9.58117e-07, No Iterations 4
smoothSolver:  Solving for Uz, Initial residual = 2.07172e-05, Final residual = 7.75176e-07, No Iterations 4
GAMG:  Solving for p, Initial residual = 4.1101e-07, Final residual = 2.7707e-08, No Iterations 1
time step continuity errors : sum local = 0.000120962, global = -5.96446e-05, cumulative = -0.0382467
smoothSolver:  Solving for nuTilda, Initial residual = 0.000176385, Final residual = 1.53809e-05, No Iterations 2
bounding nuTilda, min: -0.0051258 max: 0.160379 average: 0.0112064
ExecutionTime = 505.601 s  ClockTime = 506 s

Time = 476s

smoothSolver:  Solving for Ux, Initial residual = 7.23415e-06, Final residual = 2.22642e-07, No Iterations 4
smoothSolver:  Solving for Uy, Initial residual = 2.50954e-05, Final residual = 9.56929e-07, No Iterations 4
smoothSolver:  Solving for Uz, Initial residual = 2.07518e-05, Final residual = 7.7692e-07, No Iterations 4
GAMG:  Solving for p, Initial residual = 4.09541e-07, Final residual = 2.73868e-08, No Iterations 1
time step continuity errors : sum local = 0.000119325, global = -5.85173e-05, cumulative = -0.0383052
smoothSolver:  Solving for nuTilda, Initial residual = 0.000176336, Final residual = 1.53746e-05, No Iterations 2
bounding nuTilda, min: -0.00521154 max: 0.160478 average: 0.0112088
ExecutionTime = 506.555 s  ClockTime = 507 s

Time = 477s

smoothSolver:  Solving for Ux, Initial residual = 7.25758e-06, Final residual = 2.23724e-07, No Iterations 4
smoothSolver:  Solving for Uy, Initial residual = 2.51287e-05, Final residual = 9.60941e-07, No Iterations 4
smoothSolver:  Solving for Uz, Initial residual = 2.07495e-05, Final residual = 7.74595e-07, No Iterations 4
GAMG:  Solving for p, Initial residual = 4.1137e-07, Final residual = 2.78578e-08, No Iterations 1
time step continuity errors : sum local = 0.000121135, global = -6.00279e-05, cumulative = -0.0383653
smoothSolver:  Solving for nuTilda, Initial residual = 0.000176353, Final residual = 1.5357e-05, No Iterations 2
bounding nuTilda, min: -0.0051376 max: 0.160576 average: 0.0112104
ExecutionTime = 507.534 s  ClockTime = 508 s

Time = 478s

smoothSolver:  Solving for Ux, Initial residual = 7.26298e-06, Final residual = 2.23511e-07, No Iterations 4
smoothSolver:  Solving for Uy, Initial residual = 2.52041e-05, Final residual = 9.6196e-07, No Iterations 4
smoothSolver:  Solving for Uz, Initial residual = 2.07993e-05, Final residual = 7.76635e-07, No Iterations 4
GAMG:  Solving for p, Initial residual = 4.10798e-07, Final residual = 2.77314e-08, No Iterations 1
time step continuity errors : sum local = 0.000120341, global = -6.00357e-05, cumulative = -0.0384253
smoothSolver:  Solving for nuTilda, Initial residual = 0.000176087, Final residual = 1.53527e-05, No Iterations 2
bounding nuTilda, min: -0.00521171 max: 0.160675 average: 0.0112127
ExecutionTime = 508.458 s  ClockTime = 509 s

Time = 479s

smoothSolver:  Solving for Ux, Initial residual = 7.26535e-06, Final residual = 2.2387e-07, No Iterations 4
smoothSolver:  Solving for Uy, Initial residual = 2.51231e-05, Final residual = 9.56594e-07, No Iterations 4
smoothSolver:  Solving for Uz, Initial residual = 2.08151e-05, Final residual = 7.7586e-07, No Iterations 4
GAMG:  Solving for p, Initial residual = 4.11664e-07, Final residual = 2.78986e-08, No Iterations 1
time step continuity errors : sum local = 0.000120822, global = -6.00549e-05, cumulative = -0.0384853
smoothSolver:  Solving for nuTilda, Initial residual = 0.000176065, Final residual = 1.53364e-05, No Iterations 2
bounding nuTilda, min: -0.00512578 max: 0.160773 average: 0.0112143
ExecutionTime = 509.53 s  ClockTime = 510 s

Time = 480s

smoothSolver:  Solving for Ux, Initial residual = 7.27659e-06, Final residual = 2.2427e-07, No Iterations 4
smoothSolver:  Solving for Uy, Initial residual = 2.52442e-05, Final residual = 9.66407e-07, No Iterations 4
smoothSolver:  Solving for Uz, Initial residual = 2.08149e-05, Final residual = 7.74954e-07, No Iterations 4
GAMG:  Solving for p, Initial residual = 4.1081e-07, Final residual = 2.81804e-08, No Iterations 1
time step continuity errors : sum local = 0.000121796, global = -6.19258e-05, cumulative = -0.0385473
smoothSolver:  Solving for nuTilda, Initial residual = 0.000175891, Final residual = 1.53274e-05, No Iterations 2
bounding nuTilda, min: -0.00521147 max: 0.16087 average: 0.0112166
ExecutionTime = 510.754 s  ClockTime = 511 s

Time = 481s

smoothSolver:  Solving for Ux, Initial residual = 7.29544e-06, Final residual = 2.25027e-07, No Iterations 4
smoothSolver:  Solving for Uy, Initial residual = 2.53391e-05, Final residual = 9.70449e-07, No Iterations 4
smoothSolver:  Solving for Uz, Initial residual = 2.08795e-05, Final residual = 7.80042e-07, No Iterations 4
GAMG:  Solving for p, Initial residual = 4.13228e-07, Final residual = 2.81244e-08, No Iterations 1
time step continuity errors : sum local = 0.000121304, global = -6.08434e-05, cumulative = -0.0386081
smoothSolver:  Solving for nuTilda, Initial residual = 0.000175938, Final residual = 1.53146e-05, No Iterations 2
bounding nuTilda, min: -0.00513765 max: 0.160968 average: 0.0112182
ExecutionTime = 512.106 s  ClockTime = 512 s

Time = 482s

smoothSolver:  Solving for Ux, Initial residual = 7.30678e-06, Final residual = 2.2442e-07, No Iterations 4
smoothSolver:  Solving for Uy, Initial residual = 2.5317e-05, Final residual = 9.66157e-07, No Iterations 4
smoothSolver:  Solving for Uz, Initial residual = 2.08978e-05, Final residual = 7.79079e-07, No Iterations 4
GAMG:  Solving for p, Initial residual = 4.12996e-07, Final residual = 2.78825e-08, No Iterations 1
time step continuity errors : sum local = 0.000120018, global = -5.9851e-05, cumulative = -0.038668
smoothSolver:  Solving for nuTilda, Initial residual = 0.000175776, Final residual = 1.53076e-05, No Iterations 2
bounding nuTilda, min: -0.00521171 max: 0.161065 average: 0.0112206
ExecutionTime = 513.146 s  ClockTime = 513 s

Time = 483s

smoothSolver:  Solving for Ux, Initial residual = 7.3244e-06, Final residual = 2.25406e-07, No Iterations 4
smoothSolver:  Solving for Uy, Initial residual = 2.53205e-05, Final residual = 9.69182e-07, No Iterations 4
smoothSolver:  Solving for Uz, Initial residual = 2.08729e-05, Final residual = 7.73166e-07, No Iterations 4
GAMG:  Solving for p, Initial residual = 4.1501e-07, Final residual = 2.84172e-08, No Iterations 1
time step continuity errors : sum local = 0.000122072, global = -6.1758e-05, cumulative = -0.0387297
smoothSolver:  Solving for nuTilda, Initial residual = 0.000175721, Final residual = 1.52916e-05, No Iterations 2
bounding nuTilda, min: -0.00512581 max: 0.161161 average: 0.0112222
ExecutionTime = 514.202 s  ClockTime = 514 s

Time = 484s

smoothSolver:  Solving for Ux, Initial residual = 7.33368e-06, Final residual = 2.25434e-07, No Iterations 4
smoothSolver:  Solving for Uy, Initial residual = 2.54472e-05, Final residual = 9.78446e-07, No Iterations 4
smoothSolver:  Solving for Uz, Initial residual = 2.09231e-05, Final residual = 7.78299e-07, No Iterations 4
GAMG:  Solving for p, Initial residual = 4.13657e-07, Final residual = 2.8319e-08, No Iterations 1
time step continuity errors : sum local = 0.000121399, global = -6.20557e-05, cumulative = -0.0387918
smoothSolver:  Solving for nuTilda, Initial residual = 0.000175616, Final residual = 1.52863e-05, No Iterations 2
bounding nuTilda, min: -0.0052115 max: 0.161258 average: 0.0112245
ExecutionTime = 515.179 s  ClockTime = 515 s

Time = 485s

smoothSolver:  Solving for Ux, Initial residual = 7.34577e-06, Final residual = 2.26263e-07, No Iterations 4
smoothSolver:  Solving for Uy, Initial residual = 2.54284e-05, Final residual = 9.77804e-07, No Iterations 4
smoothSolver:  Solving for Uz, Initial residual = 2.10056e-05, Final residual = 7.80636e-07, No Iterations 4
GAMG:  Solving for p, Initial residual = 4.15346e-07, Final residual = 2.8514e-08, No Iterations 1
time step continuity errors : sum local = 0.000121982, global = -6.20371e-05, cumulative = -0.0388538
smoothSolver:  Solving for nuTilda, Initial residual = 0.000175689, Final residual = 1.52721e-05, No Iterations 2
bounding nuTilda, min: -0.00513764 max: 0.161354 average: 0.0112261
ExecutionTime = 516.209 s  ClockTime = 516 s

Time = 486s

smoothSolver:  Solving for Ux, Initial residual = 7.3532e-06, Final residual = 2.26649e-07, No Iterations 4
smoothSolver:  Solving for Uy, Initial residual = 2.54852e-05, Final residual = 9.82632e-07, No Iterations 4
smoothSolver:  Solving for Uz, Initial residual = 2.09949e-05, Final residual = 7.78334e-07, No Iterations 4
GAMG:  Solving for p, Initial residual = 4.14934e-07, Final residual = 2.88387e-08, No Iterations 1
time step continuity errors : sum local = 0.000123118, global = -6.4025e-05, cumulative = -0.0389178
smoothSolver:  Solving for nuTilda, Initial residual = 0.000175407, Final residual = 1.52636e-05, No Iterations 2
bounding nuTilda, min: -0.00521164 max: 0.16145 average: 0.0112285
ExecutionTime = 517.196 s  ClockTime = 517 s

Time = 487s

smoothSolver:  Solving for Ux, Initial residual = 7.36984e-06, Final residual = 2.27401e-07, No Iterations 4
smoothSolver:  Solving for Uy, Initial residual = 2.54816e-05, Final residual = 9.81369e-07, No Iterations 4
smoothSolver:  Solving for Uz, Initial residual = 2.10037e-05, Final residual = 7.80797e-07, No Iterations 4
GAMG:  Solving for p, Initial residual = 4.17318e-07, Final residual = 2.88403e-08, No Iterations 1
time step continuity errors : sum local = 0.000122867, global = -6.32578e-05, cumulative = -0.0389811
smoothSolver:  Solving for nuTilda, Initial residual = 0.000175342, Final residual = 1.52517e-05, No Iterations 2
bounding nuTilda, min: -0.00512586 max: 0.161545 average: 0.0112301
ExecutionTime = 518.172 s  ClockTime = 518 s

Time = 488s

smoothSolver:  Solving for Ux, Initial residual = 7.38331e-06, Final residual = 2.27245e-07, No Iterations 4
smoothSolver:  Solving for Uy, Initial residual = 2.55001e-05, Final residual = 9.80763e-07, No Iterations 4
smoothSolver:  Solving for Uz, Initial residual = 2.10872e-05, Final residual = 7.85584e-07, No Iterations 4
GAMG:  Solving for p, Initial residual = 4.16114e-07, Final residual = 2.85219e-08, No Iterations 1
time step continuity errors : sum local = 0.00012126, global = -6.22294e-05, cumulative = -0.0390433
smoothSolver:  Solving for nuTilda, Initial residual = 0.000175363, Final residual = 1.52451e-05, No Iterations 2
bounding nuTilda, min: -0.0052115 max: 0.16164 average: 0.0112325
ExecutionTime = 519.107 s  ClockTime = 519 s

Time = 489s

smoothSolver:  Solving for Ux, Initial residual = 7.41003e-06, Final residual = 2.28611e-07, No Iterations 4
smoothSolver:  Solving for Uy, Initial residual = 2.55988e-05, Final residual = 9.86073e-07, No Iterations 4
smoothSolver:  Solving for Uz, Initial residual = 2.11405e-05, Final residual = 7.86738e-07, No Iterations 4
GAMG:  Solving for p, Initial residual = 4.18594e-07, Final residual = 2.90552e-08, No Iterations 1
time step continuity errors : sum local = 0.000123272, global = -6.38232e-05, cumulative = -0.0391072
smoothSolver:  Solving for nuTilda, Initial residual = 0.000175351, Final residual = 1.52305e-05, No Iterations 2
bounding nuTilda, min: -0.00513766 max: 0.161735 average: 0.0112341
ExecutionTime = 520.074 s  ClockTime = 520 s

Time = 490s

smoothSolver:  Solving for Ux, Initial residual = 7.4151e-06, Final residual = 2.28195e-07, No Iterations 4
smoothSolver:  Solving for Uy, Initial residual = 2.56118e-05, Final residual = 9.87906e-07, No Iterations 4
smoothSolver:  Solving for Uz, Initial residual = 2.11332e-05, Final residual = 7.90397e-07, No Iterations 4
GAMG:  Solving for p, Initial residual = 4.17831e-07, Final residual = 2.89952e-08, No Iterations 1
time step continuity errors : sum local = 0.00012276, global = -6.39866e-05, cumulative = -0.0391711
smoothSolver:  Solving for nuTilda, Initial residual = 0.000175185, Final residual = 1.52263e-05, No Iterations 2
bounding nuTilda, min: -0.00521168 max: 0.161829 average: 0.0112364
ExecutionTime = 521.034 s  ClockTime = 521 s

Time = 491s

smoothSolver:  Solving for Ux, Initial residual = 7.42315e-06, Final residual = 2.28666e-07, No Iterations 4
smoothSolver:  Solving for Uy, Initial residual = 2.5522e-05, Final residual = 9.81286e-07, No Iterations 4
smoothSolver:  Solving for Uz, Initial residual = 2.11445e-05, Final residual = 7.89601e-07, No Iterations 4
GAMG:  Solving for p, Initial residual = 4.19122e-07, Final residual = 2.93571e-08, No Iterations 1
time step continuity errors : sum local = 0.000124034, global = -6.51027e-05, cumulative = -0.0392362
smoothSolver:  Solving for nuTilda, Initial residual = 0.000175093, Final residual = 1.52135e-05, No Iterations 2
bounding nuTilda, min: -0.00512587 max: 0.161923 average: 0.0112381
ExecutionTime = 522.078 s  ClockTime = 522 s

Time = 492s

smoothSolver:  Solving for Ux, Initial residual = 7.43502e-06, Final residual = 2.28421e-07, No Iterations 4
smoothSolver:  Solving for Uy, Initial residual = 2.56714e-05, Final residual = 9.94876e-07, No Iterations 4
smoothSolver:  Solving for Uz, Initial residual = 2.11381e-05, Final residual = 7.88723e-07, No Iterations 4
GAMG:  Solving for p, Initial residual = 4.18296e-07, Final residual = 2.97023e-08, No Iterations 1
time step continuity errors : sum local = 0.00012523, global = -6.69704e-05, cumulative = -0.0393032
smoothSolver:  Solving for nuTilda, Initial residual = 0.000175076, Final residual = 1.52056e-05, No Iterations 2
bounding nuTilda, min: -0.00521141 max: 0.162017 average: 0.0112405
ExecutionTime = 523.01 s  ClockTime = 523 s

Time = 493s

smoothSolver:  Solving for Ux, Initial residual = 7.4606e-06, Final residual = 2.30344e-07, No Iterations 4
smoothSolver:  Solving for Uy, Initial residual = 2.58104e-05, Final residual = 1.00151e-06, No Iterations 4
smoothSolver:  Solving for Uz, Initial residual = 2.11529e-05, Final residual = 7.90849e-07, No Iterations 4
GAMG:  Solving for p, Initial residual = 4.20897e-07, Final residual = 2.96966e-08, No Iterations 1
time step continuity errors : sum local = 0.000124941, global = -6.6133e-05, cumulative = -0.0393693
smoothSolver:  Solving for nuTilda, Initial residual = 0.000175099, Final residual = 1.51947e-05, No Iterations 2
bounding nuTilda, min: -0.00513775 max: 0.162111 average: 0.0112421
ExecutionTime = 524.005 s  ClockTime = 524 s

Time = 494s

smoothSolver:  Solving for Ux, Initial residual = 7.47935e-06, Final residual = 2.31032e-07, No Iterations 4
smoothSolver:  Solving for Uy, Initial residual = 2.58256e-05, Final residual = 9.99816e-07, No Iterations 4
smoothSolver:  Solving for Uz, Initial residual = 2.11934e-05, Final residual = 7.90213e-07, No Iterations 4
GAMG:  Solving for p, Initial residual = 4.20647e-07, Final residual = 2.94605e-08, No Iterations 1
time step continuity errors : sum local = 0.000123689, global = -6.5336e-05, cumulative = -0.0394347
smoothSolver:  Solving for nuTilda, Initial residual = 0.000174872, Final residual = 1.51886e-05, No Iterations 2
bounding nuTilda, min: -0.00521166 max: 0.162204 average: 0.0112445
ExecutionTime = 524.925 s  ClockTime = 525 s

Time = 495s

smoothSolver:  Solving for Ux, Initial residual = 7.5083e-06, Final residual = 2.33263e-07, No Iterations 4
smoothSolver:  Solving for Uy, Initial residual = 2.57843e-05, Final residual = 1.00319e-06, No Iterations 4
smoothSolver:  Solving for Uz, Initial residual = 2.11515e-05, Final residual = 7.84908e-07, No Iterations 4
GAMG:  Solving for p, Initial residual = 4.23271e-07, Final residual = 2.99893e-08, No Iterations 1
time step continuity errors : sum local = 0.000125646, global = -6.60419e-05, cumulative = -0.0395007
smoothSolver:  Solving for nuTilda, Initial residual = 0.000174721, Final residual = 1.51734e-05, No Iterations 2
bounding nuTilda, min: -0.00512588 max: 0.162297 average: 0.0112461
ExecutionTime = 525.914 s  ClockTime = 526 s

Time = 496s

smoothSolver:  Solving for Ux, Initial residual = 7.51492e-06, Final residual = 2.32382e-07, No Iterations 4
smoothSolver:  Solving for Uy, Initial residual = 2.57992e-05, Final residual = 1.00617e-06, No Iterations 4
smoothSolver:  Solving for Uz, Initial residual = 2.11763e-05, Final residual = 7.9108e-07, No Iterations 4
GAMG:  Solving for p, Initial residual = 4.21945e-07, Final residual = 3.00401e-08, No Iterations 1
time step continuity errors : sum local = 0.000125593, global = -6.73252e-05, cumulative = -0.0395681
smoothSolver:  Solving for nuTilda, Initial residual = 0.000174897, Final residual = 1.51723e-05, No Iterations 2
bounding nuTilda, min: -0.00521145 max: 0.162389 average: 0.0112485
ExecutionTime = 526.873 s  ClockTime = 527 s

Time = 497s

smoothSolver:  Solving for Ux, Initial residual = 7.53603e-06, Final residual = 2.33711e-07, No Iterations 4
smoothSolver:  Solving for Uy, Initial residual = 2.57874e-05, Final residual = 1.00611e-06, No Iterations 4
smoothSolver:  Solving for Uz, Initial residual = 2.12586e-05, Final residual = 7.97672e-07, No Iterations 4
GAMG:  Solving for p, Initial residual = 4.23951e-07, Final residual = 3.02486e-08, No Iterations 1
time step continuity errors : sum local = 0.000126197, global = -6.72617e-05, cumulative = -0.0396353
smoothSolver:  Solving for nuTilda, Initial residual = 0.000174759, Final residual = 1.51587e-05, No Iterations 2
bounding nuTilda, min: -0.00513777 max: 0.162481 average: 0.0112501
ExecutionTime = 527.794 s  ClockTime = 528 s

Time = 498s

smoothSolver:  Solving for Ux, Initial residual = 7.55768e-06, Final residual = 2.34889e-07, No Iterations 4
smoothSolver:  Solving for Uy, Initial residual = 2.59282e-05, Final residual = 1.01317e-06, No Iterations 4
smoothSolver:  Solving for Uz, Initial residual = 2.13066e-05, Final residual = 7.99336e-07, No Iterations 4
GAMG:  Solving for p, Initial residual = 4.23791e-07, Final residual = 3.06608e-08, No Iterations 1
time step continuity errors : sum local = 0.000127647, global = -6.92668e-05, cumulative = -0.0397046
smoothSolver:  Solving for nuTilda, Initial residual = 0.000174664, Final residual = 1.51533e-05, No Iterations 2
bounding nuTilda, min: -0.00521158 max: 0.162573 average: 0.0112525
ExecutionTime = 528.772 s  ClockTime = 529 s

Time = 499s

smoothSolver:  Solving for Ux, Initial residual = 7.58252e-06, Final residual = 2.36219e-07, No Iterations 4
smoothSolver:  Solving for Uy, Initial residual = 2.60126e-05, Final residual = 1.01419e-06, No Iterations 4
smoothSolver:  Solving for Uz, Initial residual = 2.13532e-05, Final residual = 8.03253e-07, No Iterations 4
GAMG:  Solving for p, Initial residual = 4.26735e-07, Final residual = 3.08585e-08, No Iterations 1
time step continuity errors : sum local = 0.000128197, global = -6.92632e-05, cumulative = -0.0397738
smoothSolver:  Solving for nuTilda, Initial residual = 0.000174465, Final residual = 1.51413e-05, No Iterations 2
bounding nuTilda, min: -0.00512607 max: 0.162665 average: 0.0112541
ExecutionTime = 529.708 s  ClockTime = 530 s

Time = 500s

smoothSolver:  Solving for Ux, Initial residual = 7.60004e-06, Final residual = 2.36551e-07, No Iterations 4
smoothSolver:  Solving for Uy, Initial residual = 2.61285e-05, Final residual = 1.01971e-06, No Iterations 4
smoothSolver:  Solving for Uz, Initial residual = 2.14172e-05, Final residual = 8.09676e-07, No Iterations 4
GAMG:  Solving for p, Initial residual = 4.25769e-07, Final residual = 3.07822e-08, No Iterations 1
time step continuity errors : sum local = 0.00012761, global = -6.96132e-05, cumulative = -0.0398435
smoothSolver:  Solving for nuTilda, Initial residual = 0.000174667, Final residual = 1.51384e-05, No Iterations 2
bounding nuTilda, min: -0.00521136 max: 0.162756 average: 0.0112566
ExecutionTime = 530.773 s  ClockTime = 531 s

End

Finalising parallel run
