/*---------------------------------------------------------------------------*\
  =========                 |
  \\      /  F ield         | OpenFOAM: The Open Source CFD Toolbox
   \\    /   O peration     | Website:  https://openfoam.org
    \\  /    A nd           | Version:  11
     \\/     M anipulation  |
\*---------------------------------------------------------------------------*/
Build  : 11-d5b4d966c3c5
Exec   : foamRun -parallel
Date   : Dec 15 2023
Time   : 09:39:40
Host   : "Laptop"
PID    : 9862
I/O    : uncollated
Case   : /home/tiago/OpenFOAM/tiago-11/run/Wind_Tunnel_KEREA_WallModel_Sym_Fine
nProcs : 4
Slaves : 
3
(
"Laptop.9863"
"Laptop.9865"
"Laptop.9866"
)

Pstream initialised with:
    floatTransfer      : false
    nProcsSimpleSum    : 0
    commsType          : nonBlocking
    polling iterations : 0
sigFpe : Enabling floating point exception trapping (FOAM_SIGFPE).
fileModificationChecking : Monitoring run-time modified files using timeStampMaster (fileModificationSkew 10)
allowSystemOperations : Allowing user-supplied system call operations

// * * * * * * * * * * * * * * * * * * * * * * * * * * * * * * * * * * * * * //
Create time

Create mesh for time = 0

Selecting solver incompressibleFluid
Selecting viscosity model constant
Selecting turbulence model type RAS
Selecting RAS turbulence model realizableKE
RAS
{
    model           realizableKE;
    turbulence      on;
    printCoeffs     on;
    A0              4;
    C2              1.9;
    sigmak          1;
    sigmaEps        1.2;
}

No MRF models present


SIMPLE: Convergence criteria found
        p: tolerance 0.0001
        U: tolerance 0.0001
        k: tolerance 0.0001
        epsilon: tolerance 0.0001


SIMPLE: Operating solver in steady-state mode with 1 outer corrector
SIMPLE: Operating solver in SIMPLE mode



Starting time loop

Time = 1s

smoothSolver:  Solving for Ux, Initial residual = 1, Final residual = 0.0565643, No Iterations 2
smoothSolver:  Solving for Uy, Initial residual = 1, Final residual = 0.0539228, No Iterations 3
smoothSolver:  Solving for Uz, Initial residual = 1, Final residual = 0.0539228, No Iterations 3
GAMG:  Solving for p, Initial residual = 1, Final residual = 0.00965764, No Iterations 22
time step continuity errors : sum local = 0.00823038, global = 0.00124512, cumulative = 0.00124512
smoothSolver:  Solving for epsilon, Initial residual = 0.0507919, Final residual = 0.00331539, No Iterations 2
smoothSolver:  Solving for k, Initial residual = 1, Final residual = 0.0788966, No Iterations 2
ExecutionTime = 24.3272 s  ClockTime = 24 s

Time = 2s

smoothSolver:  Solving for Ux, Initial residual = 0.352996, Final residual = 0.0246136, No Iterations 5
smoothSolver:  Solving for Uy, Initial residual = 0.365103, Final residual = 0.0257222, No Iterations 5
smoothSolver:  Solving for Uz, Initial residual = 0.356297, Final residual = 0.0251198, No Iterations 5
GAMG:  Solving for p, Initial residual = 0.000430386, Final residual = 3.99506e-06, No Iterations 17
time step continuity errors : sum local = 0.0263446, global = 0.00362929, cumulative = 0.0048744
smoothSolver:  Solving for epsilon, Initial residual = 0.0932546, Final residual = 0.00266083, No Iterations 2
smoothSolver:  Solving for k, Initial residual = 0.45384, Final residual = 0.0262323, No Iterations 2
ExecutionTime = 37.0856 s  ClockTime = 37 s

Time = 3s

smoothSolver:  Solving for Ux, Initial residual = 0.479535, Final residual = 0.0344025, No Iterations 3
smoothSolver:  Solving for Uy, Initial residual = 0.410196, Final residual = 0.0305657, No Iterations 3
smoothSolver:  Solving for Uz, Initial residual = 0.276428, Final residual = 0.026201, No Iterations 4
GAMG:  Solving for p, Initial residual = 7.68441e-05, Final residual = 2.71483e-07, No Iterations 10
time step continuity errors : sum local = 0.00917227, global = -0.000460487, cumulative = 0.00441392
smoothSolver:  Solving for epsilon, Initial residual = 0.0894009, Final residual = 0.0012811, No Iterations 2
smoothSolver:  Solving for k, Initial residual = 0.209519, Final residual = 0.0177033, No Iterations 2
ExecutionTime = 50.2678 s  ClockTime = 50 s

Time = 4s

smoothSolver:  Solving for Ux, Initial residual = 0.440739, Final residual = 0.0265485, No Iterations 2
smoothSolver:  Solving for Uy, Initial residual = 0.451762, Final residual = 0.0245047, No Iterations 2
smoothSolver:  Solving for Uz, Initial residual = 0.39623, Final residual = 0.0227505, No Iterations 2
GAMG:  Solving for p, Initial residual = 8.99724e-05, Final residual = 6.85877e-07, No Iterations 17
time step continuity errors : sum local = 0.0196235, global = -0.00389197, cumulative = 0.000521952
smoothSolver:  Solving for epsilon, Initial residual = 0.0594302, Final residual = 0.0013246, No Iterations 2
bounding epsilon, min: -0.000936715 max: 20714.4 average: 0.662388
smoothSolver:  Solving for k, Initial residual = 0.372662, Final residual = 0.019037, No Iterations 2
ExecutionTime = 65.9723 s  ClockTime = 66 s

Time = 5s

smoothSolver:  Solving for Ux, Initial residual = 0.536696, Final residual = 0.00649151, No Iterations 2
smoothSolver:  Solving for Uy, Initial residual = 0.547434, Final residual = 0.00982816, No Iterations 2
smoothSolver:  Solving for Uz, Initial residual = 0.555924, Final residual = 0.0105916, No Iterations 2
GAMG:  Solving for p, Initial residual = 0.000754569, Final residual = 6.53327e-06, No Iterations 12
time step continuity errors : sum local = 0.0276669, global = -0.00366298, cumulative = -0.00314103
smoothSolver:  Solving for epsilon, Initial residual = 0.0279884, Final residual = 0.000820508, No Iterations 2
smoothSolver:  Solving for k, Initial residual = 0.174318, Final residual = 0.0155377, No Iterations 1
ExecutionTime = 79.053 s  ClockTime = 79 s

Time = 6s

smoothSolver:  Solving for Ux, Initial residual = 0.211555, Final residual = 0.0197038, No Iterations 4
smoothSolver:  Solving for Uy, Initial residual = 0.151255, Final residual = 0.0131854, No Iterations 4
smoothSolver:  Solving for Uz, Initial residual = 0.141873, Final residual = 0.0128206, No Iterations 4
GAMG:  Solving for p, Initial residual = 0.000330713, Final residual = 3.13327e-06, No Iterations 7
time step continuity errors : sum local = 0.0454937, global = 0.00954566, cumulative = 0.00640464
smoothSolver:  Solving for epsilon, Initial residual = 0.0757021, Final residual = 0.00228709, No Iterations 2
smoothSolver:  Solving for k, Initial residual = 0.110919, Final residual = 0.00696257, No Iterations 2
ExecutionTime = 91.1102 s  ClockTime = 91 s

Time = 7s

smoothSolver:  Solving for Ux, Initial residual = 0.150761, Final residual = 0.0128217, No Iterations 5
smoothSolver:  Solving for Uy, Initial residual = 0.127593, Final residual = 0.00819044, No Iterations 5
smoothSolver:  Solving for Uz, Initial residual = 0.126118, Final residual = 0.0121345, No Iterations 4
GAMG:  Solving for p, Initial residual = 0.000239142, Final residual = 2.33729e-06, No Iterations 11
time step continuity errors : sum local = 0.0375082, global = 0.00880656, cumulative = 0.0152112
smoothSolver:  Solving for epsilon, Initial residual = 0.0846837, Final residual = 0.00235425, No Iterations 2
smoothSolver:  Solving for k, Initial residual = 0.0817707, Final residual = 0.00719996, No Iterations 2
ExecutionTime = 103.69 s  ClockTime = 104 s

Time = 8s

smoothSolver:  Solving for Ux, Initial residual = 0.0919705, Final residual = 0.00846866, No Iterations 3
smoothSolver:  Solving for Uy, Initial residual = 0.085777, Final residual = 0.00617488, No Iterations 4
smoothSolver:  Solving for Uz, Initial residual = 0.0879212, Final residual = 0.00565207, No Iterations 4
GAMG:  Solving for p, Initial residual = 0.00192061, Final residual = 9.98239e-06, No Iterations 11
time step continuity errors : sum local = 0.0166681, global = 0.00355185, cumulative = 0.018763
smoothSolver:  Solving for epsilon, Initial residual = 0.0854599, Final residual = 0.00246395, No Iterations 2
smoothSolver:  Solving for k, Initial residual = 0.0789068, Final residual = 0.00740113, No Iterations 2
ExecutionTime = 115.983 s  ClockTime = 116 s

Time = 9s

smoothSolver:  Solving for Ux, Initial residual = 0.137277, Final residual = 0.0125239, No Iterations 4
smoothSolver:  Solving for Uy, Initial residual = 0.0922384, Final residual = 0.00818361, No Iterations 4
smoothSolver:  Solving for Uz, Initial residual = 0.0977768, Final residual = 0.0072385, No Iterations 4
GAMG:  Solving for p, Initial residual = 0.000368713, Final residual = 2.53386e-06, No Iterations 8
time step continuity errors : sum local = 0.0198285, global = -0.00432071, cumulative = 0.0144423
smoothSolver:  Solving for epsilon, Initial residual = 0.0884746, Final residual = 0.00263875, No Iterations 2
smoothSolver:  Solving for k, Initial residual = 0.0791433, Final residual = 0.00652724, No Iterations 2
ExecutionTime = 128.423 s  ClockTime = 128 s

Time = 10s

smoothSolver:  Solving for Ux, Initial residual = 0.0763969, Final residual = 0.00582689, No Iterations 5
smoothSolver:  Solving for Uy, Initial residual = 0.0730807, Final residual = 0.00666045, No Iterations 4
smoothSolver:  Solving for Uz, Initial residual = 0.0708726, Final residual = 0.00598934, No Iterations 4
GAMG:  Solving for p, Initial residual = 0.000311115, Final residual = 1.7617e-06, No Iterations 14
time step continuity errors : sum local = 0.0126304, global = -0.00193697, cumulative = 0.0125054
smoothSolver:  Solving for epsilon, Initial residual = 0.0742646, Final residual = 0.00307972, No Iterations 2
smoothSolver:  Solving for k, Initial residual = 0.062325, Final residual = 0.00252577, No Iterations 3
ExecutionTime = 141.099 s  ClockTime = 141 s

Time = 11s

smoothSolver:  Solving for Ux, Initial residual = 0.0518453, Final residual = 0.00424361, No Iterations 3
smoothSolver:  Solving for Uy, Initial residual = 0.0748253, Final residual = 0.00460056, No Iterations 4
smoothSolver:  Solving for Uz, Initial residual = 0.0644785, Final residual = 0.00401323, No Iterations 4
GAMG:  Solving for p, Initial residual = 0.00204694, Final residual = 1.93735e-05, No Iterations 9
time step continuity errors : sum local = 0.021412, global = -0.00530794, cumulative = 0.00719742
smoothSolver:  Solving for epsilon, Initial residual = 0.0729059, Final residual = 0.00298467, No Iterations 2
smoothSolver:  Solving for k, Initial residual = 0.067866, Final residual = 0.00638429, No Iterations 2
ExecutionTime = 152.458 s  ClockTime = 152 s

Time = 12s

smoothSolver:  Solving for Ux, Initial residual = 0.0721061, Final residual = 0.00688013, No Iterations 4
smoothSolver:  Solving for Uy, Initial residual = 0.0731538, Final residual = 0.00560527, No Iterations 4
smoothSolver:  Solving for Uz, Initial residual = 0.0717262, Final residual = 0.00517238, No Iterations 4
GAMG:  Solving for p, Initial residual = 0.00047036, Final residual = 4.17441e-06, No Iterations 8
time step continuity errors : sum local = 0.017746, global = 0.0034609, cumulative = 0.0106583
smoothSolver:  Solving for epsilon, Initial residual = 0.074027, Final residual = 0.00304098, No Iterations 2
smoothSolver:  Solving for k, Initial residual = 0.0555898, Final residual = 0.00254931, No Iterations 3
ExecutionTime = 164.25 s  ClockTime = 164 s

Time = 13s

smoothSolver:  Solving for Ux, Initial residual = 0.0478895, Final residual = 0.00375187, No Iterations 5
smoothSolver:  Solving for Uy, Initial residual = 0.0595283, Final residual = 0.00530686, No Iterations 4
smoothSolver:  Solving for Uz, Initial residual = 0.0577334, Final residual = 0.00497992, No Iterations 4
GAMG:  Solving for p, Initial residual = 0.000427383, Final residual = 2.44316e-06, No Iterations 13
time step continuity errors : sum local = 0.00950272, global = 0.00228695, cumulative = 0.0129453
smoothSolver:  Solving for epsilon, Initial residual = 0.0714874, Final residual = 0.00289225, No Iterations 2
smoothSolver:  Solving for k, Initial residual = 0.051546, Final residual = 0.00249962, No Iterations 3
ExecutionTime = 176.61 s  ClockTime = 177 s

Time = 14s

smoothSolver:  Solving for Ux, Initial residual = 0.0382999, Final residual = 0.00338435, No Iterations 3
smoothSolver:  Solving for Uy, Initial residual = 0.0490433, Final residual = 0.00360232, No Iterations 4
smoothSolver:  Solving for Uz, Initial residual = 0.0483777, Final residual = 0.00330197, No Iterations 4
GAMG:  Solving for p, Initial residual = 0.111155, Final residual = 0.000995379, No Iterations 9
time step continuity errors : sum local = 0.0131321, global = 0.00271161, cumulative = 0.0156569
smoothSolver:  Solving for epsilon, Initial residual = 0.0658894, Final residual = 0.00264553, No Iterations 2
smoothSolver:  Solving for k, Initial residual = 0.0476046, Final residual = 0.00239674, No Iterations 3
ExecutionTime = 188.821 s  ClockTime = 189 s

Time = 15s

smoothSolver:  Solving for Ux, Initial residual = 0.0456868, Final residual = 0.00420639, No Iterations 4
smoothSolver:  Solving for Uy, Initial residual = 0.0499584, Final residual = 0.00390127, No Iterations 4
smoothSolver:  Solving for Uz, Initial residual = 0.0514855, Final residual = 0.00355326, No Iterations 4
GAMG:  Solving for p, Initial residual = 0.00045973, Final residual = 4.55208e-06, No Iterations 8
time step continuity errors : sum local = 0.0130295, global = -0.00194525, cumulative = 0.0137116
smoothSolver:  Solving for epsilon, Initial residual = 0.0579409, Final residual = 0.00239886, No Iterations 2
smoothSolver:  Solving for k, Initial residual = 0.0439434, Final residual = 0.00223286, No Iterations 3
ExecutionTime = 201.772 s  ClockTime = 202 s

Time = 16s

smoothSolver:  Solving for Ux, Initial residual = 0.0329662, Final residual = 0.0021779, No Iterations 5
smoothSolver:  Solving for Uy, Initial residual = 0.0498193, Final residual = 0.00411714, No Iterations 4
smoothSolver:  Solving for Uz, Initial residual = 0.0479612, Final residual = 0.00353028, No Iterations 4
GAMG:  Solving for p, Initial residual = 0.000443047, Final residual = 4.28062e-06, No Iterations 12
time step continuity errors : sum local = 0.0111564, global = -0.00155741, cumulative = 0.0121542
smoothSolver:  Solving for epsilon, Initial residual = 0.0521972, Final residual = 0.00236078, No Iterations 2
smoothSolver:  Solving for k, Initial residual = 0.0407192, Final residual = 0.00206652, No Iterations 3
ExecutionTime = 215.218 s  ClockTime = 215 s

Time = 17s

smoothSolver:  Solving for Ux, Initial residual = 0.0261748, Final residual = 0.00241398, No Iterations 3
smoothSolver:  Solving for Uy, Initial residual = 0.0449357, Final residual = 0.00313707, No Iterations 4
smoothSolver:  Solving for Uz, Initial residual = 0.0431427, Final residual = 0.00273018, No Iterations 4
GAMG:  Solving for p, Initial residual = 0.00196985, Final residual = 1.55801e-05, No Iterations 10
time step continuity errors : sum local = 0.00827372, global = -0.00155448, cumulative = 0.0105997
smoothSolver:  Solving for epsilon, Initial residual = 0.0462324, Final residual = 0.00232672, No Iterations 2
smoothSolver:  Solving for k, Initial residual = 0.0384545, Final residual = 0.00192277, No Iterations 3
ExecutionTime = 229.827 s  ClockTime = 230 s

Time = 18s

smoothSolver:  Solving for Ux, Initial residual = 0.0303081, Final residual = 0.00267422, No Iterations 4
smoothSolver:  Solving for Uy, Initial residual = 0.0423386, Final residual = 0.00296566, No Iterations 4
smoothSolver:  Solving for Uz, Initial residual = 0.0423441, Final residual = 0.00258801, No Iterations 4
GAMG:  Solving for p, Initial residual = 0.0010085, Final residual = 6.70827e-06, No Iterations 6
time step continuity errors : sum local = 0.00653367, global = 0.000259429, cumulative = 0.0108592
smoothSolver:  Solving for epsilon, Initial residual = 0.0400872, Final residual = 0.00226461, No Iterations 2
smoothSolver:  Solving for k, Initial residual = 0.0358897, Final residual = 0.00177549, No Iterations 3
ExecutionTime = 241.836 s  ClockTime = 242 s

Time = 19s

smoothSolver:  Solving for Ux, Initial residual = 0.0258001, Final residual = 0.00227148, No Iterations 4
smoothSolver:  Solving for Uy, Initial residual = 0.0412427, Final residual = 0.00289042, No Iterations 4
smoothSolver:  Solving for Uz, Initial residual = 0.0409376, Final residual = 0.00267119, No Iterations 4
GAMG:  Solving for p, Initial residual = 0.0012739, Final residual = 1.26088e-05, No Iterations 9
time step continuity errors : sum local = 0.00896361, global = 0.00145642, cumulative = 0.0123156
smoothSolver:  Solving for epsilon, Initial residual = 0.034611, Final residual = 0.00221963, No Iterations 2
smoothSolver:  Solving for k, Initial residual = 0.0335456, Final residual = 0.00163108, No Iterations 3
ExecutionTime = 255.469 s  ClockTime = 255 s

Time = 20s

smoothSolver:  Solving for Ux, Initial residual = 0.0213495, Final residual = 0.00207093, No Iterations 3
smoothSolver:  Solving for Uy, Initial residual = 0.0417456, Final residual = 0.00258863, No Iterations 4
smoothSolver:  Solving for Uz, Initial residual = 0.0420305, Final residual = 0.00419137, No Iterations 3
GAMG:  Solving for p, Initial residual = 0.00205818, Final residual = 1.81195e-05, No Iterations 9
time step continuity errors : sum local = 0.00739161, global = 0.00127948, cumulative = 0.0135951
smoothSolver:  Solving for epsilon, Initial residual = 0.0302294, Final residual = 0.00224358, No Iterations 2
smoothSolver:  Solving for k, Initial residual = 0.0316246, Final residual = 0.00150191, No Iterations 3
ExecutionTime = 268.094 s  ClockTime = 268 s

Time = 21s

smoothSolver:  Solving for Ux, Initial residual = 0.0221277, Final residual = 0.00171542, No Iterations 4
smoothSolver:  Solving for Uy, Initial residual = 0.0432599, Final residual = 0.00262951, No Iterations 4
smoothSolver:  Solving for Uz, Initial residual = 0.0440563, Final residual = 0.00431357, No Iterations 3
GAMG:  Solving for p, Initial residual = 0.000712664, Final residual = 3.37407e-06, No Iterations 6
time step continuity errors : sum local = 0.0038167, global = 0.00038151, cumulative = 0.0139766
smoothSolver:  Solving for epsilon, Initial residual = 0.0270032, Final residual = 0.00224188, No Iterations 2
smoothSolver:  Solving for k, Initial residual = 0.0298586, Final residual = 0.0013701, No Iterations 3
ExecutionTime = 279.3 s  ClockTime = 279 s

Time = 22s

smoothSolver:  Solving for Ux, Initial residual = 0.0204941, Final residual = 0.00159231, No Iterations 4
smoothSolver:  Solving for Uy, Initial residual = 0.0425714, Final residual = 0.00263584, No Iterations 4
smoothSolver:  Solving for Uz, Initial residual = 0.0421766, Final residual = 0.00240229, No Iterations 4
GAMG:  Solving for p, Initial residual = 0.000767846, Final residual = 6.48869e-06, No Iterations 7
time step continuity errors : sum local = 0.00657713, global = -0.00154767, cumulative = 0.0124289
smoothSolver:  Solving for epsilon, Initial residual = 0.0244907, Final residual = 0.00218821, No Iterations 2
smoothSolver:  Solving for k, Initial residual = 0.0285415, Final residual = 0.00126666, No Iterations 3
ExecutionTime = 289.844 s  ClockTime = 290 s

Time = 23s

smoothSolver:  Solving for Ux, Initial residual = 0.0181305, Final residual = 0.00100396, No Iterations 4
smoothSolver:  Solving for Uy, Initial residual = 0.0398097, Final residual = 0.00225578, No Iterations 4
smoothSolver:  Solving for Uz, Initial residual = 0.0391413, Final residual = 0.00377939, No Iterations 3
GAMG:  Solving for p, Initial residual = 0.0017353, Final residual = 1.63342e-05, No Iterations 8
time step continuity errors : sum local = 0.0071648, global = -0.000585281, cumulative = 0.0118436
smoothSolver:  Solving for epsilon, Initial residual = 0.0222524, Final residual = 0.00208102, No Iterations 2
smoothSolver:  Solving for k, Initial residual = 0.0275415, Final residual = 0.00118774, No Iterations 3
ExecutionTime = 301.066 s  ClockTime = 301 s

Time = 24s

smoothSolver:  Solving for Ux, Initial residual = 0.0183702, Final residual = 0.00127316, No Iterations 4
smoothSolver:  Solving for Uy, Initial residual = 0.0394223, Final residual = 0.00385255, No Iterations 3
smoothSolver:  Solving for Uz, Initial residual = 0.0381753, Final residual = 0.00354063, No Iterations 3
GAMG:  Solving for p, Initial residual = 0.0878712, Final residual = 0.00076973, No Iterations 5
time step continuity errors : sum local = 0.00652566, global = -0.000965883, cumulative = 0.0108777
smoothSolver:  Solving for epsilon, Initial residual = 0.0203416, Final residual = 0.00195421, No Iterations 2
smoothSolver:  Solving for k, Initial residual = 0.0266745, Final residual = 0.00112211, No Iterations 3
ExecutionTime = 313.707 s  ClockTime = 314 s

Time = 25s

smoothSolver:  Solving for Ux, Initial residual = 0.0177278, Final residual = 0.00119122, No Iterations 4
smoothSolver:  Solving for Uy, Initial residual = 0.0407511, Final residual = 0.004014, No Iterations 3
smoothSolver:  Solving for Uz, Initial residual = 0.0389967, Final residual = 0.00368534, No Iterations 3
GAMG:  Solving for p, Initial residual = 0.009407, Final residual = 5.23088e-05, No Iterations 5
time step continuity errors : sum local = 0.0040594, global = -0.000289032, cumulative = 0.0105887
smoothSolver:  Solving for epsilon, Initial residual = 0.018824, Final residual = 0.00183168, No Iterations 2
smoothSolver:  Solving for k, Initial residual = 0.0259725, Final residual = 0.00106834, No Iterations 3
ExecutionTime = 325.341 s  ClockTime = 325 s

Time = 26s

smoothSolver:  Solving for Ux, Initial residual = 0.015997, Final residual = 0.000901533, No Iterations 4
smoothSolver:  Solving for Uy, Initial residual = 0.042472, Final residual = 0.00400622, No Iterations 3
smoothSolver:  Solving for Uz, Initial residual = 0.0403445, Final residual = 0.00367325, No Iterations 3
GAMG:  Solving for p, Initial residual = 0.00213969, Final residual = 2.09782e-05, No Iterations 5
time step continuity errors : sum local = 0.00701623, global = 0.000586493, cumulative = 0.0111752
smoothSolver:  Solving for epsilon, Initial residual = 0.0175821, Final residual = 0.00171979, No Iterations 2
smoothSolver:  Solving for k, Initial residual = 0.0254166, Final residual = 0.00102262, No Iterations 3
ExecutionTime = 336.399 s  ClockTime = 336 s

Time = 27s

smoothSolver:  Solving for Ux, Initial residual = 0.0157041, Final residual = 0.00094972, No Iterations 4
smoothSolver:  Solving for Uy, Initial residual = 0.0426282, Final residual = 0.00384725, No Iterations 3
smoothSolver:  Solving for Uz, Initial residual = 0.0402751, Final residual = 0.00353324, No Iterations 3
GAMG:  Solving for p, Initial residual = 0.00129389, Final residual = 1.01438e-05, No Iterations 5
time step continuity errors : sum local = 0.00558169, global = -0.000527619, cumulative = 0.0106476
smoothSolver:  Solving for epsilon, Initial residual = 0.0165588, Final residual = 0.0016166, No Iterations 2
smoothSolver:  Solving for k, Initial residual = 0.0249741, Final residual = 0.000981365, No Iterations 3
ExecutionTime = 347.235 s  ClockTime = 347 s

Time = 28s

smoothSolver:  Solving for Ux, Initial residual = 0.0163597, Final residual = 0.000965538, No Iterations 4
smoothSolver:  Solving for Uy, Initial residual = 0.0416788, Final residual = 0.00374105, No Iterations 3
smoothSolver:  Solving for Uz, Initial residual = 0.0388924, Final residual = 0.00343397, No Iterations 3
GAMG:  Solving for p, Initial residual = 0.00134467, Final residual = 1.00084e-05, No Iterations 4
time step continuity errors : sum local = 0.00523116, global = 0.00125221, cumulative = 0.0118998
smoothSolver:  Solving for epsilon, Initial residual = 0.0156211, Final residual = 0.00152171, No Iterations 2
smoothSolver:  Solving for k, Initial residual = 0.0246224, Final residual = 0.00094579, No Iterations 3
ExecutionTime = 357.544 s  ClockTime = 358 s

Time = 29s

smoothSolver:  Solving for Ux, Initial residual = 0.0158643, Final residual = 0.00158204, No Iterations 3
smoothSolver:  Solving for Uy, Initial residual = 0.0412605, Final residual = 0.00370677, No Iterations 3
smoothSolver:  Solving for Uz, Initial residual = 0.0378798, Final residual = 0.00331104, No Iterations 3
GAMG:  Solving for p, Initial residual = 0.00168623, Final residual = 1.37117e-05, No Iterations 5
time step continuity errors : sum local = 0.00564502, global = -0.000989294, cumulative = 0.0109105
smoothSolver:  Solving for epsilon, Initial residual = 0.0149016, Final residual = 0.0014417, No Iterations 2
smoothSolver:  Solving for k, Initial residual = 0.0243712, Final residual = 0.00091647, No Iterations 3
ExecutionTime = 368.996 s  ClockTime = 369 s

Time = 30s

smoothSolver:  Solving for Ux, Initial residual = 0.0154048, Final residual = 0.00150484, No Iterations 3
smoothSolver:  Solving for Uy, Initial residual = 0.0414583, Final residual = 0.00373504, No Iterations 3
smoothSolver:  Solving for Uz, Initial residual = 0.0375672, Final residual = 0.00316971, No Iterations 3
GAMG:  Solving for p, Initial residual = 0.0025085, Final residual = 2.40022e-05, No Iterations 4
time step continuity errors : sum local = 0.0065459, global = -0.000206346, cumulative = 0.0107042
smoothSolver:  Solving for epsilon, Initial residual = 0.0142841, Final residual = 0.00137203, No Iterations 2
smoothSolver:  Solving for k, Initial residual = 0.0240954, Final residual = 0.000887686, No Iterations 3
ExecutionTime = 379.607 s  ClockTime = 380 s

Time = 31s

smoothSolver:  Solving for Ux, Initial residual = 0.015339, Final residual = 0.000810333, No Iterations 4
smoothSolver:  Solving for Uy, Initial residual = 0.0425463, Final residual = 0.00388813, No Iterations 3
smoothSolver:  Solving for Uz, Initial residual = 0.0381492, Final residual = 0.00325921, No Iterations 3
GAMG:  Solving for p, Initial residual = 0.00301849, Final residual = 1.43054e-05, No Iterations 5
time step continuity errors : sum local = 0.00318352, global = -0.000530831, cumulative = 0.0101733
smoothSolver:  Solving for epsilon, Initial residual = 0.0138359, Final residual = 0.00131294, No Iterations 2
smoothSolver:  Solving for k, Initial residual = 0.0238461, Final residual = 0.000858527, No Iterations 3
ExecutionTime = 391.36 s  ClockTime = 391 s

Time = 32s

smoothSolver:  Solving for Ux, Initial residual = 0.0146426, Final residual = 0.00141484, No Iterations 3
smoothSolver:  Solving for Uy, Initial residual = 0.043573, Final residual = 0.00402153, No Iterations 3
smoothSolver:  Solving for Uz, Initial residual = 0.038966, Final residual = 0.00339623, No Iterations 3
GAMG:  Solving for p, Initial residual = 0.0023271, Final residual = 1.55807e-05, No Iterations 4
time step continuity errors : sum local = 0.00443888, global = 0.00043422, cumulative = 0.0106075
smoothSolver:  Solving for epsilon, Initial residual = 0.0134908, Final residual = 0.00127146, No Iterations 2
smoothSolver:  Solving for k, Initial residual = 0.0236561, Final residual = 0.0023464, No Iterations 2
ExecutionTime = 402.859 s  ClockTime = 403 s

Time = 33s

smoothSolver:  Solving for Ux, Initial residual = 0.0143342, Final residual = 0.00134306, No Iterations 3
smoothSolver:  Solving for Uy, Initial residual = 0.0433644, Final residual = 0.00398607, No Iterations 3
smoothSolver:  Solving for Uz, Initial residual = 0.0386468, Final residual = 0.00336671, No Iterations 3
GAMG:  Solving for p, Initial residual = 0.00176564, Final residual = 1.27907e-05, No Iterations 4
time step continuity errors : sum local = 0.00473044, global = 0.000970939, cumulative = 0.0115785
smoothSolver:  Solving for epsilon, Initial residual = 0.0131742, Final residual = 0.00123261, No Iterations 2
smoothSolver:  Solving for k, Initial residual = 0.0235148, Final residual = 0.00228953, No Iterations 2
ExecutionTime = 414.675 s  ClockTime = 415 s

Time = 34s

smoothSolver:  Solving for Ux, Initial residual = 0.0145326, Final residual = 0.00136438, No Iterations 3
smoothSolver:  Solving for Uy, Initial residual = 0.0428549, Final residual = 0.00389923, No Iterations 3
smoothSolver:  Solving for Uz, Initial residual = 0.0380208, Final residual = 0.00329065, No Iterations 3
GAMG:  Solving for p, Initial residual = 0.00149607, Final residual = 9.88087e-06, No Iterations 4
time step continuity errors : sum local = 0.00421991, global = 0.00107725, cumulative = 0.0126557
smoothSolver:  Solving for epsilon, Initial residual = 0.0129083, Final residual = 0.00120134, No Iterations 2
smoothSolver:  Solving for k, Initial residual = 0.0234117, Final residual = 0.002234, No Iterations 2
ExecutionTime = 425.275 s  ClockTime = 425 s

Time = 35s

smoothSolver:  Solving for Ux, Initial residual = 0.0144683, Final residual = 0.00134918, No Iterations 3
smoothSolver:  Solving for Uy, Initial residual = 0.0427445, Final residual = 0.00389996, No Iterations 3
smoothSolver:  Solving for Uz, Initial residual = 0.0379373, Final residual = 0.00331472, No Iterations 3
GAMG:  Solving for p, Initial residual = 0.00150824, Final residual = 1.17008e-05, No Iterations 4
time step continuity errors : sum local = 0.00484005, global = 0.000833235, cumulative = 0.013489
smoothSolver:  Solving for epsilon, Initial residual = 0.0126544, Final residual = 0.00116884, No Iterations 2
smoothSolver:  Solving for k, Initial residual = 0.023319, Final residual = 0.00217892, No Iterations 2
ExecutionTime = 435.218 s  ClockTime = 435 s

Time = 36s

smoothSolver:  Solving for Ux, Initial residual = 0.0140208, Final residual = 0.0012582, No Iterations 3
smoothSolver:  Solving for Uy, Initial residual = 0.0430309, Final residual = 0.00394457, No Iterations 3
smoothSolver:  Solving for Uz, Initial residual = 0.0380361, Final residual = 0.00331332, No Iterations 3
GAMG:  Solving for p, Initial residual = 0.00171854, Final residual = 9.35697e-06, No Iterations 4
time step continuity errors : sum local = 0.00333163, global = 0.000199239, cumulative = 0.0136882
smoothSolver:  Solving for epsilon, Initial residual = 0.0123951, Final residual = 0.00113268, No Iterations 2
smoothSolver:  Solving for k, Initial residual = 0.02326, Final residual = 0.0021258, No Iterations 2
ExecutionTime = 445.362 s  ClockTime = 445 s

Time = 37s

smoothSolver:  Solving for Ux, Initial residual = 0.0136235, Final residual = 0.00119982, No Iterations 3
smoothSolver:  Solving for Uy, Initial residual = 0.0433987, Final residual = 0.00399587, No Iterations 3
smoothSolver:  Solving for Uz, Initial residual = 0.0380891, Final residual = 0.00328326, No Iterations 3
GAMG:  Solving for p, Initial residual = 0.00191803, Final residual = 1.44948e-05, No Iterations 4
time step continuity errors : sum local = 0.00456162, global = 1.43062e-06, cumulative = 0.0136896
smoothSolver:  Solving for epsilon, Initial residual = 0.0121066, Final residual = 0.00109335, No Iterations 2
smoothSolver:  Solving for k, Initial residual = 0.0231767, Final residual = 0.00207236, No Iterations 2
ExecutionTime = 455.479 s  ClockTime = 456 s

Time = 38s

smoothSolver:  Solving for Ux, Initial residual = 0.0133296, Final residual = 0.00117216, No Iterations 3
smoothSolver:  Solving for Uy, Initial residual = 0.0435848, Final residual = 0.00401584, No Iterations 3
smoothSolver:  Solving for Uz, Initial residual = 0.0381779, Final residual = 0.00328613, No Iterations 3
GAMG:  Solving for p, Initial residual = 0.00198346, Final residual = 1.29239e-05, No Iterations 5
time step continuity errors : sum local = 0.00384453, global = -0.000635221, cumulative = 0.0130544
smoothSolver:  Solving for epsilon, Initial residual = 0.0117823, Final residual = 0.0010499, No Iterations 2
smoothSolver:  Solving for k, Initial residual = 0.0230765, Final residual = 0.00201886, No Iterations 2
ExecutionTime = 467.384 s  ClockTime = 467 s

Time = 39s

smoothSolver:  Solving for Ux, Initial residual = 0.0131527, Final residual = 0.0011359, No Iterations 3
smoothSolver:  Solving for Uy, Initial residual = 0.0435474, Final residual = 0.00397307, No Iterations 3
smoothSolver:  Solving for Uz, Initial residual = 0.0383452, Final residual = 0.0032668, No Iterations 3
GAMG:  Solving for p, Initial residual = 0.00179063, Final residual = 7.05685e-06, No Iterations 5
time step continuity errors : sum local = 0.0022612, global = -0.000879455, cumulative = 0.012175
smoothSolver:  Solving for epsilon, Initial residual = 0.0114128, Final residual = 0.00100339, No Iterations 2
smoothSolver:  Solving for k, Initial residual = 0.022942, Final residual = 0.00196738, No Iterations 2
ExecutionTime = 478.607 s  ClockTime = 479 s

Time = 40s

smoothSolver:  Solving for Ux, Initial residual = 0.0129504, Final residual = 0.00109854, No Iterations 3
smoothSolver:  Solving for Uy, Initial residual = 0.0434052, Final residual = 0.00390839, No Iterations 3
smoothSolver:  Solving for Uz, Initial residual = 0.0382957, Final residual = 0.00321425, No Iterations 3
GAMG:  Solving for p, Initial residual = 0.00160997, Final residual = 1.3278e-05, No Iterations 4
time step continuity errors : sum local = 0.00460704, global = 0.00178416, cumulative = 0.0139591
smoothSolver:  Solving for epsilon, Initial residual = 0.0110357, Final residual = 0.00095556, No Iterations 2
smoothSolver:  Solving for k, Initial residual = 0.022821, Final residual = 0.00192041, No Iterations 2
ExecutionTime = 489.946 s  ClockTime = 490 s

Time = 41s

smoothSolver:  Solving for Ux, Initial residual = 0.0126983, Final residual = 0.00106847, No Iterations 3
smoothSolver:  Solving for Uy, Initial residual = 0.0433111, Final residual = 0.00384502, No Iterations 3
smoothSolver:  Solving for Uz, Initial residual = 0.0381493, Final residual = 0.00317371, No Iterations 3
GAMG:  Solving for p, Initial residual = 0.00153677, Final residual = 1.19525e-05, No Iterations 4
time step continuity errors : sum local = 0.00425481, global = 0.00189874, cumulative = 0.0158579
smoothSolver:  Solving for epsilon, Initial residual = 0.0106706, Final residual = 0.00090691, No Iterations 2
smoothSolver:  Solving for k, Initial residual = 0.0227236, Final residual = 0.00187553, No Iterations 2
ExecutionTime = 500.053 s  ClockTime = 500 s

Time = 42s

smoothSolver:  Solving for Ux, Initial residual = 0.0124428, Final residual = 0.00103995, No Iterations 3
smoothSolver:  Solving for Uy, Initial residual = 0.0431757, Final residual = 0.00380308, No Iterations 3
smoothSolver:  Solving for Uz, Initial residual = 0.0379747, Final residual = 0.0031574, No Iterations 3
GAMG:  Solving for p, Initial residual = 0.00154387, Final residual = 9.42481e-06, No Iterations 4
time step continuity errors : sum local = 0.00327789, global = 0.00128366, cumulative = 0.0171415
smoothSolver:  Solving for epsilon, Initial residual = 0.010324, Final residual = 0.000858864, No Iterations 2
smoothSolver:  Solving for k, Initial residual = 0.0226415, Final residual = 0.00183536, No Iterations 2
ExecutionTime = 510.041 s  ClockTime = 510 s

Time = 43s

smoothSolver:  Solving for Ux, Initial residual = 0.0121829, Final residual = 0.0010107, No Iterations 3
smoothSolver:  Solving for Uy, Initial residual = 0.0429401, Final residual = 0.00377223, No Iterations 3
smoothSolver:  Solving for Uz, Initial residual = 0.0377168, Final residual = 0.00314306, No Iterations 3
GAMG:  Solving for p, Initial residual = 0.00156698, Final residual = 5.29954e-06, No Iterations 5
time step continuity errors : sum local = 0.00177284, global = -0.000530024, cumulative = 0.0166115
smoothSolver:  Solving for epsilon, Initial residual = 0.00997624, Final residual = 0.000813011, No Iterations 2
smoothSolver:  Solving for k, Initial residual = 0.0225759, Final residual = 0.00179929, No Iterations 2
ExecutionTime = 521.197 s  ClockTime = 521 s

Time = 44s

smoothSolver:  Solving for Ux, Initial residual = 0.0119974, Final residual = 0.000988321, No Iterations 3
smoothSolver:  Solving for Uy, Initial residual = 0.0426484, Final residual = 0.00375768, No Iterations 3
smoothSolver:  Solving for Uz, Initial residual = 0.0376354, Final residual = 0.00313945, No Iterations 3
GAMG:  Solving for p, Initial residual = 0.00159181, Final residual = 1.46496e-05, No Iterations 4
time step continuity errors : sum local = 0.00467751, global = 0.00118239, cumulative = 0.0177939
smoothSolver:  Solving for epsilon, Initial residual = 0.00964034, Final residual = 0.000771045, No Iterations 2
smoothSolver:  Solving for k, Initial residual = 0.0225349, Final residual = 0.00176751, No Iterations 2
ExecutionTime = 532.712 s  ClockTime = 533 s

Time = 45s

smoothSolver:  Solving for Ux, Initial residual = 0.0118351, Final residual = 0.000971554, No Iterations 3
smoothSolver:  Solving for Uy, Initial residual = 0.0423733, Final residual = 0.00374825, No Iterations 3
smoothSolver:  Solving for Uz, Initial residual = 0.0375867, Final residual = 0.0031517, No Iterations 3
GAMG:  Solving for p, Initial residual = 0.00152993, Final residual = 1.43705e-05, No Iterations 4
time step continuity errors : sum local = 0.00461647, global = 0.000802029, cumulative = 0.0185959
smoothSolver:  Solving for epsilon, Initial residual = 0.00933315, Final residual = 0.000732676, No Iterations 2
smoothSolver:  Solving for k, Initial residual = 0.0225298, Final residual = 0.00174056, No Iterations 2
ExecutionTime = 545.366 s  ClockTime = 545 s

Time = 46s

smoothSolver:  Solving for Ux, Initial residual = 0.0115845, Final residual = 0.000942143, No Iterations 3
smoothSolver:  Solving for Uy, Initial residual = 0.0421736, Final residual = 0.00372174, No Iterations 3
smoothSolver:  Solving for Uz, Initial residual = 0.0375055, Final residual = 0.00314649, No Iterations 3
GAMG:  Solving for p, Initial residual = 0.00147861, Final residual = 8.60373e-06, No Iterations 5
time step continuity errors : sum local = 0.00281489, global = -0.00106818, cumulative = 0.0175277
smoothSolver:  Solving for epsilon, Initial residual = 0.00907003, Final residual = 0.000697836, No Iterations 2
smoothSolver:  Solving for k, Initial residual = 0.0226047, Final residual = 0.00171898, No Iterations 2
ExecutionTime = 559.618 s  ClockTime = 560 s

Time = 47s

smoothSolver:  Solving for Ux, Initial residual = 0.0112981, Final residual = 0.000908922, No Iterations 3
smoothSolver:  Solving for Uy, Initial residual = 0.0421036, Final residual = 0.00366752, No Iterations 3
smoothSolver:  Solving for Uz, Initial residual = 0.0374641, Final residual = 0.00311316, No Iterations 3
GAMG:  Solving for p, Initial residual = 0.0014252, Final residual = 6.3335e-06, No Iterations 5
time step continuity errors : sum local = 0.00210755, global = -0.00109282, cumulative = 0.0164349
smoothSolver:  Solving for epsilon, Initial residual = 0.00887029, Final residual = 0.000667786, No Iterations 2
smoothSolver:  Solving for k, Initial residual = 0.0227391, Final residual = 0.00170108, No Iterations 2
ExecutionTime = 572.563 s  ClockTime = 573 s

Time = 48s

smoothSolver:  Solving for Ux, Initial residual = 0.0110783, Final residual = 0.00088006, No Iterations 3
smoothSolver:  Solving for Uy, Initial residual = 0.0421141, Final residual = 0.00358404, No Iterations 3
smoothSolver:  Solving for Uz, Initial residual = 0.0374908, Final residual = 0.00306322, No Iterations 3
GAMG:  Solving for p, Initial residual = 0.00137581, Final residual = 1.08482e-05, No Iterations 4
time step continuity errors : sum local = 0.0036523, global = 0.00168917, cumulative = 0.0181241
smoothSolver:  Solving for epsilon, Initial residual = 0.00873077, Final residual = 0.000642469, No Iterations 2
smoothSolver:  Solving for k, Initial residual = 0.0229019, Final residual = 0.00168473, No Iterations 2
ExecutionTime = 583.338 s  ClockTime = 583 s

Time = 49s

smoothSolver:  Solving for Ux, Initial residual = 0.0109679, Final residual = 0.000857435, No Iterations 3
smoothSolver:  Solving for Uy, Initial residual = 0.0419889, Final residual = 0.00348595, No Iterations 3
smoothSolver:  Solving for Uz, Initial residual = 0.0374854, Final residual = 0.00300094, No Iterations 3
GAMG:  Solving for p, Initial residual = 0.00133808, Final residual = 1.28139e-05, No Iterations 4
time step continuity errors : sum local = 0.00431731, global = 0.00208256, cumulative = 0.0202066
smoothSolver:  Solving for epsilon, Initial residual = 0.00864502, Final residual = 0.000621066, No Iterations 2
smoothSolver:  Solving for k, Initial residual = 0.0230616, Final residual = 0.00166966, No Iterations 2
ExecutionTime = 593.072 s  ClockTime = 593 s

Time = 50s

smoothSolver:  Solving for Ux, Initial residual = 0.0108922, Final residual = 0.000843459, No Iterations 3
smoothSolver:  Solving for Uy, Initial residual = 0.0418644, Final residual = 0.00340525, No Iterations 3
smoothSolver:  Solving for Uz, Initial residual = 0.0373626, Final residual = 0.00294603, No Iterations 3
GAMG:  Solving for p, Initial residual = 0.00131221, Final residual = 6.26375e-06, No Iterations 5
time step continuity errors : sum local = 0.00211259, global = -0.000951446, cumulative = 0.0192552
smoothSolver:  Solving for epsilon, Initial residual = 0.00860813, Final residual = 0.000603457, No Iterations 2
smoothSolver:  Solving for k, Initial residual = 0.0232078, Final residual = 0.00165554, No Iterations 2
ExecutionTime = 603.376 s  ClockTime = 603 s

Time = 51s

smoothSolver:  Solving for Ux, Initial residual = 0.0107454, Final residual = 0.000824132, No Iterations 3
smoothSolver:  Solving for Uy, Initial residual = 0.0417649, Final residual = 0.00334546, No Iterations 3
smoothSolver:  Solving for Uz, Initial residual = 0.0372548, Final residual = 0.00289668, No Iterations 3
GAMG:  Solving for p, Initial residual = 0.00130018, Final residual = 6.22247e-06, No Iterations 5
time step continuity errors : sum local = 0.00210258, global = -0.000927304, cumulative = 0.0183279
smoothSolver:  Solving for epsilon, Initial residual = 0.00860124, Final residual = 0.000588907, No Iterations 2
smoothSolver:  Solving for k, Initial residual = 0.0233211, Final residual = 0.00164225, No Iterations 2
ExecutionTime = 613.691 s  ClockTime = 614 s

Time = 52s

smoothSolver:  Solving for Ux, Initial residual = 0.0105427, Final residual = 0.000802042, No Iterations 3
smoothSolver:  Solving for Uy, Initial residual = 0.0418255, Final residual = 0.00331523, No Iterations 3
smoothSolver:  Solving for Uz, Initial residual = 0.0373231, Final residual = 0.00287974, No Iterations 3
GAMG:  Solving for p, Initial residual = 0.00126859, Final residual = 6.11215e-06, No Iterations 5
time step continuity errors : sum local = 0.00209415, global = -0.00088466, cumulative = 0.0174432
smoothSolver:  Solving for epsilon, Initial residual = 0.0086306, Final residual = 0.000576829, No Iterations 2
smoothSolver:  Solving for k, Initial residual = 0.0234191, Final residual = 0.00162805, No Iterations 2
ExecutionTime = 624.261 s  ClockTime = 624 s

Time = 53s

smoothSolver:  Solving for Ux, Initial residual = 0.0103692, Final residual = 0.000782058, No Iterations 3
smoothSolver:  Solving for Uy, Initial residual = 0.0420202, Final residual = 0.00331343, No Iterations 3
smoothSolver:  Solving for Uz, Initial residual = 0.0376447, Final residual = 0.00288255, No Iterations 3
GAMG:  Solving for p, Initial residual = 0.00124341, Final residual = 1.15206e-05, No Iterations 4
time step continuity errors : sum local = 0.00397617, global = 0.0016153, cumulative = 0.0190585
smoothSolver:  Solving for epsilon, Initial residual = 0.00868589, Final residual = 0.000566339, No Iterations 2
smoothSolver:  Solving for k, Initial residual = 0.023499, Final residual = 0.00161326, No Iterations 2
ExecutionTime = 635.15 s  ClockTime = 635 s

Time = 54s

smoothSolver:  Solving for Ux, Initial residual = 0.0102509, Final residual = 0.000768515, No Iterations 3
smoothSolver:  Solving for Uy, Initial residual = 0.0422442, Final residual = 0.00332034, No Iterations 3
smoothSolver:  Solving for Uz, Initial residual = 0.0379721, Final residual = 0.00289573, No Iterations 3
GAMG:  Solving for p, Initial residual = 0.00122043, Final residual = 1.15995e-05, No Iterations 4
time step continuity errors : sum local = 0.00401372, global = 0.00144554, cumulative = 0.0205041
smoothSolver:  Solving for epsilon, Initial residual = 0.00877477, Final residual = 0.000556681, No Iterations 2
smoothSolver:  Solving for k, Initial residual = 0.0235401, Final residual = 0.00159589, No Iterations 2
ExecutionTime = 645.091 s  ClockTime = 645 s

Time = 55s

smoothSolver:  Solving for Ux, Initial residual = 0.0101462, Final residual = 0.000756052, No Iterations 3
smoothSolver:  Solving for Uy, Initial residual = 0.0424229, Final residual = 0.00333429, No Iterations 3
smoothSolver:  Solving for Uz, Initial residual = 0.0381953, Final residual = 0.00291184, No Iterations 3
GAMG:  Solving for p, Initial residual = 0.0012205, Final residual = 4.90614e-06, No Iterations 5
time step continuity errors : sum local = 0.00168745, global = -0.000412785, cumulative = 0.0200913
smoothSolver:  Solving for epsilon, Initial residual = 0.0088715, Final residual = 0.000546838, No Iterations 2
smoothSolver:  Solving for k, Initial residual = 0.0235381, Final residual = 0.00157538, No Iterations 2
ExecutionTime = 655.617 s  ClockTime = 656 s

Time = 56s

smoothSolver:  Solving for Ux, Initial residual = 0.0100162, Final residual = 0.000741208, No Iterations 3
smoothSolver:  Solving for Uy, Initial residual = 0.0425711, Final residual = 0.00335213, No Iterations 3
smoothSolver:  Solving for Uz, Initial residual = 0.0383767, Final residual = 0.00291802, No Iterations 3
GAMG:  Solving for p, Initial residual = 0.00121896, Final residual = 4.95393e-06, No Iterations 5
time step continuity errors : sum local = 0.00170964, global = -0.000414492, cumulative = 0.0196768
smoothSolver:  Solving for epsilon, Initial residual = 0.00897289, Final residual = 0.000536501, No Iterations 2
smoothSolver:  Solving for k, Initial residual = 0.0234646, Final residual = 0.00155055, No Iterations 2
ExecutionTime = 668.487 s  ClockTime = 669 s

Time = 57s

smoothSolver:  Solving for Ux, Initial residual = 0.00986324, Final residual = 0.000724051, No Iterations 3
smoothSolver:  Solving for Uy, Initial residual = 0.0429397, Final residual = 0.00336967, No Iterations 3
smoothSolver:  Solving for Uz, Initial residual = 0.0387523, Final residual = 0.00292735, No Iterations 3
GAMG:  Solving for p, Initial residual = 0.00121795, Final residual = 1.09582e-05, No Iterations 4
time step continuity errors : sum local = 0.00380231, global = 0.00110737, cumulative = 0.0207842
smoothSolver:  Solving for epsilon, Initial residual = 0.00907688, Final residual = 0.000525766, No Iterations 2
smoothSolver:  Solving for k, Initial residual = 0.0233561, Final residual = 0.00152293, No Iterations 2
ExecutionTime = 679.544 s  ClockTime = 680 s

Time = 58s

smoothSolver:  Solving for Ux, Initial residual = 0.00971018, Final residual = 0.000702729, No Iterations 3
smoothSolver:  Solving for Uy, Initial residual = 0.0434483, Final residual = 0.00338696, No Iterations 3
smoothSolver:  Solving for Uz, Initial residual = 0.0392866, Final residual = 0.00293546, No Iterations 3
GAMG:  Solving for p, Initial residual = 0.00121133, Final residual = 9.52148e-06, No Iterations 4
time step continuity errors : sum local = 0.00331366, global = 0.000848331, cumulative = 0.0216325
smoothSolver:  Solving for epsilon, Initial residual = 0.00917027, Final residual = 0.000515148, No Iterations 2
smoothSolver:  Solving for k, Initial residual = 0.02318, Final residual = 0.00149232, No Iterations 2
ExecutionTime = 689.906 s  ClockTime = 690 s

Time = 59s

smoothSolver:  Solving for Ux, Initial residual = 0.00957148, Final residual = 0.000679197, No Iterations 3
smoothSolver:  Solving for Uy, Initial residual = 0.0439306, Final residual = 0.0033841, No Iterations 3
smoothSolver:  Solving for Uz, Initial residual = 0.0397883, Final residual = 0.00293545, No Iterations 3
GAMG:  Solving for p, Initial residual = 0.00121908, Final residual = 8.38673e-06, No Iterations 4
time step continuity errors : sum local = 0.00290012, global = 0.000570262, cumulative = 0.0222028
smoothSolver:  Solving for epsilon, Initial residual = 0.00925916, Final residual = 0.000505566, No Iterations 2
smoothSolver:  Solving for k, Initial residual = 0.0229642, Final residual = 0.00146037, No Iterations 2
ExecutionTime = 700.482 s  ClockTime = 701 s

Time = 60s

smoothSolver:  Solving for Ux, Initial residual = 0.00944762, Final residual = 0.000653945, No Iterations 3
smoothSolver:  Solving for Uy, Initial residual = 0.0442739, Final residual = 0.00335054, No Iterations 3
smoothSolver:  Solving for Uz, Initial residual = 0.0401117, Final residual = 0.00291672, No Iterations 3
GAMG:  Solving for p, Initial residual = 0.00123945, Final residual = 7.65302e-06, No Iterations 4
time step continuity errors : sum local = 0.00261561, global = 0.000236002, cumulative = 0.0224388
smoothSolver:  Solving for epsilon, Initial residual = 0.00932866, Final residual = 0.000496928, No Iterations 2
smoothSolver:  Solving for k, Initial residual = 0.0226964, Final residual = 0.00142744, No Iterations 2
ExecutionTime = 711.105 s  ClockTime = 711 s

Time = 61s

smoothSolver:  Solving for Ux, Initial residual = 0.00932355, Final residual = 0.000626206, No Iterations 3
smoothSolver:  Solving for Uy, Initial residual = 0.0445478, Final residual = 0.0033046, No Iterations 3
smoothSolver:  Solving for Uz, Initial residual = 0.0402805, Final residual = 0.00288638, No Iterations 3
GAMG:  Solving for p, Initial residual = 0.00126756, Final residual = 7.08152e-06, No Iterations 4
time step continuity errors : sum local = 0.0023789, global = 1.5384e-05, cumulative = 0.0224541
smoothSolver:  Solving for epsilon, Initial residual = 0.0093905, Final residual = 0.000489494, No Iterations 2
smoothSolver:  Solving for k, Initial residual = 0.022373, Final residual = 0.00139196, No Iterations 2
ExecutionTime = 721.705 s  ClockTime = 722 s

Time = 62s

smoothSolver:  Solving for Ux, Initial residual = 0.0091996, Final residual = 0.000598262, No Iterations 3
smoothSolver:  Solving for Uy, Initial residual = 0.0448048, Final residual = 0.00326564, No Iterations 3
smoothSolver:  Solving for Uz, Initial residual = 0.0404917, Final residual = 0.00287372, No Iterations 3
GAMG:  Solving for p, Initial residual = 0.00129664, Final residual = 6.67759e-06, No Iterations 4
time step continuity errors : sum local = 0.00220717, global = -8.4162e-06, cumulative = 0.0224457
smoothSolver:  Solving for epsilon, Initial residual = 0.00944245, Final residual = 0.00048374, No Iterations 2
smoothSolver:  Solving for k, Initial residual = 0.0220121, Final residual = 0.00135695, No Iterations 2
ExecutionTime = 731.838 s  ClockTime = 732 s

Time = 63s

smoothSolver:  Solving for Ux, Initial residual = 0.0090918, Final residual = 0.000574527, No Iterations 3
smoothSolver:  Solving for Uy, Initial residual = 0.045056, Final residual = 0.00323778, No Iterations 3
smoothSolver:  Solving for Uz, Initial residual = 0.0407059, Final residual = 0.00287586, No Iterations 3
GAMG:  Solving for p, Initial residual = 0.00131895, Final residual = 6.6817e-06, No Iterations 4
time step continuity errors : sum local = 0.00217445, global = 0.000112651, cumulative = 0.0225584
smoothSolver:  Solving for epsilon, Initial residual = 0.00948449, Final residual = 0.000479289, No Iterations 2
smoothSolver:  Solving for k, Initial residual = 0.0216001, Final residual = 0.00132098, No Iterations 2
ExecutionTime = 743.085 s  ClockTime = 743 s

Time = 64s

smoothSolver:  Solving for Ux, Initial residual = 0.00901655, Final residual = 0.000559549, No Iterations 3
smoothSolver:  Solving for Uy, Initial residual = 0.0451763, Final residual = 0.00322486, No Iterations 3
smoothSolver:  Solving for Uz, Initial residual = 0.0407863, Final residual = 0.00288073, No Iterations 3
GAMG:  Solving for p, Initial residual = 0.0013314, Final residual = 7.02843e-06, No Iterations 4
time step continuity errors : sum local = 0.0022476, global = 0.000283942, cumulative = 0.0228423
smoothSolver:  Solving for epsilon, Initial residual = 0.00952078, Final residual = 0.000474786, No Iterations 2
smoothSolver:  Solving for k, Initial residual = 0.021177, Final residual = 0.00128428, No Iterations 2
ExecutionTime = 752.807 s  ClockTime = 753 s

Time = 65s

smoothSolver:  Solving for Ux, Initial residual = 0.00897766, Final residual = 0.000553473, No Iterations 3
smoothSolver:  Solving for Uy, Initial residual = 0.0451564, Final residual = 0.00320305, No Iterations 3
smoothSolver:  Solving for Uz, Initial residual = 0.0406307, Final residual = 0.00286271, No Iterations 3
GAMG:  Solving for p, Initial residual = 0.00134432, Final residual = 7.84281e-06, No Iterations 4
time step continuity errors : sum local = 0.0024564, global = 0.000122916, cumulative = 0.0229652
smoothSolver:  Solving for epsilon, Initial residual = 0.00953609, Final residual = 0.000469523, No Iterations 2
smoothSolver:  Solving for k, Initial residual = 0.0207119, Final residual = 0.00124462, No Iterations 2
ExecutionTime = 763.427 s  ClockTime = 763 s

Time = 66s

smoothSolver:  Solving for Ux, Initial residual = 0.00894574, Final residual = 0.000553981, No Iterations 3
smoothSolver:  Solving for Uy, Initial residual = 0.0449533, Final residual = 0.00317284, No Iterations 3
smoothSolver:  Solving for Uz, Initial residual = 0.0402542, Final residual = 0.00282286, No Iterations 3
GAMG:  Solving for p, Initial residual = 0.00137087, Final residual = 1.07096e-05, No Iterations 4
time step continuity errors : sum local = 0.00327439, global = -0.000496623, cumulative = 0.0224686
smoothSolver:  Solving for epsilon, Initial residual = 0.00953626, Final residual = 0.000464004, No Iterations 2
smoothSolver:  Solving for k, Initial residual = 0.0202377, Final residual = 0.00120407, No Iterations 2
ExecutionTime = 773.459 s  ClockTime = 774 s

Time = 67s

smoothSolver:  Solving for Ux, Initial residual = 0.00889349, Final residual = 0.000555692, No Iterations 3
smoothSolver:  Solving for Uy, Initial residual = 0.0447843, Final residual = 0.00314847, No Iterations 3
smoothSolver:  Solving for Uz, Initial residual = 0.0398876, Final residual = 0.00277315, No Iterations 3
GAMG:  Solving for p, Initial residual = 0.00140272, Final residual = 1.05204e-05, No Iterations 4
time step continuity errors : sum local = 0.00310619, global = -0.000489183, cumulative = 0.0219794
smoothSolver:  Solving for epsilon, Initial residual = 0.00952265, Final residual = 0.000458163, No Iterations 2
smoothSolver:  Solving for k, Initial residual = 0.019751, Final residual = 0.0011639, No Iterations 2
ExecutionTime = 785.014 s  ClockTime = 785 s

Time = 68s

smoothSolver:  Solving for Ux, Initial residual = 0.00882519, Final residual = 0.000556665, No Iterations 3
smoothSolver:  Solving for Uy, Initial residual = 0.0447058, Final residual = 0.00312965, No Iterations 3
smoothSolver:  Solving for Uz, Initial residual = 0.0395828, Final residual = 0.00272423, No Iterations 3
GAMG:  Solving for p, Initial residual = 0.00143083, Final residual = 7.89017e-06, No Iterations 4
time step continuity errors : sum local = 0.00224741, global = -2.26549e-05, cumulative = 0.0219568
smoothSolver:  Solving for epsilon, Initial residual = 0.00947979, Final residual = 0.0004523, No Iterations 2
smoothSolver:  Solving for k, Initial residual = 0.0192688, Final residual = 0.00112604, No Iterations 2
ExecutionTime = 795.253 s  ClockTime = 795 s

Time = 69s

smoothSolver:  Solving for Ux, Initial residual = 0.00875391, Final residual = 0.000558946, No Iterations 3
smoothSolver:  Solving for Uy, Initial residual = 0.044581, Final residual = 0.0031109, No Iterations 3
smoothSolver:  Solving for Uz, Initial residual = 0.0392307, Final residual = 0.00268315, No Iterations 3
GAMG:  Solving for p, Initial residual = 0.00144587, Final residual = 6.18189e-06, No Iterations 4
time step continuity errors : sum local = 0.00172301, global = 6.82173e-05, cumulative = 0.022025
smoothSolver:  Solving for epsilon, Initial residual = 0.00942063, Final residual = 0.000445677, No Iterations 2
smoothSolver:  Solving for k, Initial residual = 0.0187941, Final residual = 0.00108932, No Iterations 2
ExecutionTime = 806.769 s  ClockTime = 807 s

Time = 70s

smoothSolver:  Solving for Ux, Initial residual = 0.00866533, Final residual = 0.000561955, No Iterations 3
smoothSolver:  Solving for Uy, Initial residual = 0.0443417, Final residual = 0.00307836, No Iterations 3
smoothSolver:  Solving for Uz, Initial residual = 0.0387703, Final residual = 0.00263778, No Iterations 3
GAMG:  Solving for p, Initial residual = 0.00145236, Final residual = 1.43488e-05, No Iterations 3
time step continuity errors : sum local = 0.00392801, global = 0.000139016, cumulative = 0.022164
smoothSolver:  Solving for epsilon, Initial residual = 0.00934083, Final residual = 0.000437903, No Iterations 2
smoothSolver:  Solving for k, Initial residual = 0.018334, Final residual = 0.00105436, No Iterations 2
ExecutionTime = 817.079 s  ClockTime = 817 s

Time = 71s

smoothSolver:  Solving for Ux, Initial residual = 0.00854359, Final residual = 0.000563035, No Iterations 3
smoothSolver:  Solving for Uy, Initial residual = 0.0441135, Final residual = 0.00302311, No Iterations 3
smoothSolver:  Solving for Uz, Initial residual = 0.0382109, Final residual = 0.00259099, No Iterations 3
GAMG:  Solving for p, Initial residual = 0.00144666, Final residual = 8.87749e-06, No Iterations 4
time step continuity errors : sum local = 0.00238819, global = -6.891e-05, cumulative = 0.0220951
smoothSolver:  Solving for epsilon, Initial residual = 0.0092595, Final residual = 0.00042986, No Iterations 2
smoothSolver:  Solving for k, Initial residual = 0.0178904, Final residual = 0.0010219, No Iterations 2
ExecutionTime = 828.043 s  ClockTime = 828 s

Time = 72s

smoothSolver:  Solving for Ux, Initial residual = 0.00838936, Final residual = 0.000561313, No Iterations 3
smoothSolver:  Solving for Uy, Initial residual = 0.0439833, Final residual = 0.00297996, No Iterations 3
smoothSolver:  Solving for Uz, Initial residual = 0.0376379, Final residual = 0.00255897, No Iterations 3
GAMG:  Solving for p, Initial residual = 0.00143247, Final residual = 7.60307e-06, No Iterations 4
time step continuity errors : sum local = 0.00200056, global = 0.00010497, cumulative = 0.0222001
smoothSolver:  Solving for epsilon, Initial residual = 0.00916633, Final residual = 0.00042201, No Iterations 2
smoothSolver:  Solving for k, Initial residual = 0.0174536, Final residual = 0.000991919, No Iterations 2
ExecutionTime = 838.93 s  ClockTime = 839 s

Time = 73s

smoothSolver:  Solving for Ux, Initial residual = 0.00818701, Final residual = 0.000553447, No Iterations 3
smoothSolver:  Solving for Uy, Initial residual = 0.0438826, Final residual = 0.00296532, No Iterations 3
smoothSolver:  Solving for Uz, Initial residual = 0.0372113, Final residual = 0.00254189, No Iterations 3
GAMG:  Solving for p, Initial residual = 0.00140908, Final residual = 6.24023e-06, No Iterations 4
time step continuity errors : sum local = 0.00161042, global = 8.53883e-05, cumulative = 0.0222855
smoothSolver:  Solving for epsilon, Initial residual = 0.00907306, Final residual = 0.000414061, No Iterations 2
smoothSolver:  Solving for k, Initial residual = 0.0170385, Final residual = 0.000964316, No Iterations 2
ExecutionTime = 848.386 s  ClockTime = 848 s

Time = 74s

smoothSolver:  Solving for Ux, Initial residual = 0.00797771, Final residual = 0.000542161, No Iterations 3
smoothSolver:  Solving for Uy, Initial residual = 0.0437784, Final residual = 0.00297625, No Iterations 3
smoothSolver:  Solving for Uz, Initial residual = 0.0368038, Final residual = 0.00254047, No Iterations 3
GAMG:  Solving for p, Initial residual = 0.00137348, Final residual = 6.21264e-06, No Iterations 4
time step continuity errors : sum local = 0.00157884, global = 1.33485e-05, cumulative = 0.0222988
smoothSolver:  Solving for epsilon, Initial residual = 0.00897049, Final residual = 0.000406633, No Iterations 2
smoothSolver:  Solving for k, Initial residual = 0.0166284, Final residual = 0.000939015, No Iterations 2
ExecutionTime = 857.821 s  ClockTime = 858 s

Time = 75s

smoothSolver:  Solving for Ux, Initial residual = 0.00779001, Final residual = 0.000530301, No Iterations 3
smoothSolver:  Solving for Uy, Initial residual = 0.0437134, Final residual = 0.0030179, No Iterations 3
smoothSolver:  Solving for Uz, Initial residual = 0.0364153, Final residual = 0.00255266, No Iterations 3
GAMG:  Solving for p, Initial residual = 0.0013417, Final residual = 7.35419e-06, No Iterations 4
time step continuity errors : sum local = 0.00184565, global = 0.00013582, cumulative = 0.0224346
smoothSolver:  Solving for epsilon, Initial residual = 0.00886191, Final residual = 0.000399796, No Iterations 2
smoothSolver:  Solving for k, Initial residual = 0.0162447, Final residual = 0.000915863, No Iterations 2
ExecutionTime = 867.484 s  ClockTime = 868 s

Time = 76s

smoothSolver:  Solving for Ux, Initial residual = 0.00760643, Final residual = 0.00051719, No Iterations 3
smoothSolver:  Solving for Uy, Initial residual = 0.0437039, Final residual = 0.00307498, No Iterations 3
smoothSolver:  Solving for Uz, Initial residual = 0.0360096, Final residual = 0.00256728, No Iterations 3
GAMG:  Solving for p, Initial residual = 0.00131265, Final residual = 9.73781e-06, No Iterations 4
time step continuity errors : sum local = 0.00242432, global = 0.000421318, cumulative = 0.0228559
smoothSolver:  Solving for epsilon, Initial residual = 0.00875037, Final residual = 0.00039354, No Iterations 2
smoothSolver:  Solving for k, Initial residual = 0.0158728, Final residual = 0.000894723, No Iterations 2
ExecutionTime = 877.224 s  ClockTime = 877 s

Time = 77s

smoothSolver:  Solving for Ux, Initial residual = 0.00742429, Final residual = 0.000502267, No Iterations 3
smoothSolver:  Solving for Uy, Initial residual = 0.0436542, Final residual = 0.00313002, No Iterations 3
smoothSolver:  Solving for Uz, Initial residual = 0.0356438, Final residual = 0.00257539, No Iterations 3
GAMG:  Solving for p, Initial residual = 0.00127628, Final residual = 9.54544e-06, No Iterations 4
time step continuity errors : sum local = 0.00237704, global = 0.000489984, cumulative = 0.0233459
smoothSolver:  Solving for epsilon, Initial residual = 0.00862915, Final residual = 0.000387584, No Iterations 2
smoothSolver:  Solving for k, Initial residual = 0.0155177, Final residual = 0.000875192, No Iterations 2
ExecutionTime = 886.799 s  ClockTime = 887 s

Time = 78s

smoothSolver:  Solving for Ux, Initial residual = 0.00723171, Final residual = 0.000487285, No Iterations 3
smoothSolver:  Solving for Uy, Initial residual = 0.0434821, Final residual = 0.00315645, No Iterations 3
smoothSolver:  Solving for Uz, Initial residual = 0.0352212, Final residual = 0.00256972, No Iterations 3
GAMG:  Solving for p, Initial residual = 0.00123731, Final residual = 7.5224e-06, No Iterations 4
time step continuity errors : sum local = 0.00187399, global = 0.00027258, cumulative = 0.0236185
smoothSolver:  Solving for epsilon, Initial residual = 0.0085098, Final residual = 0.00038166, No Iterations 2
smoothSolver:  Solving for k, Initial residual = 0.0151801, Final residual = 0.000856243, No Iterations 2
ExecutionTime = 896.135 s  ClockTime = 896 s

Time = 79s

smoothSolver:  Solving for Ux, Initial residual = 0.00705595, Final residual = 0.00047134, No Iterations 3
smoothSolver:  Solving for Uy, Initial residual = 0.043213, Final residual = 0.00314973, No Iterations 3
smoothSolver:  Solving for Uz, Initial residual = 0.0347621, Final residual = 0.00254499, No Iterations 3
GAMG:  Solving for p, Initial residual = 0.00119983, Final residual = 6.33941e-06, No Iterations 4
time step continuity errors : sum local = 0.00157205, global = 0.00019159, cumulative = 0.0238101
smoothSolver:  Solving for epsilon, Initial residual = 0.0083917, Final residual = 0.000375773, No Iterations 2
smoothSolver:  Solving for k, Initial residual = 0.0148574, Final residual = 0.000837792, No Iterations 2
ExecutionTime = 905.579 s  ClockTime = 906 s

Time = 80s

smoothSolver:  Solving for Ux, Initial residual = 0.0068992, Final residual = 0.000457316, No Iterations 3
smoothSolver:  Solving for Uy, Initial residual = 0.0429816, Final residual = 0.00311857, No Iterations 3
smoothSolver:  Solving for Uz, Initial residual = 0.0343727, Final residual = 0.00251131, No Iterations 3
GAMG:  Solving for p, Initial residual = 0.00116481, Final residual = 6.76183e-06, No Iterations 4
time step continuity errors : sum local = 0.00166571, global = 0.000306593, cumulative = 0.0241167
smoothSolver:  Solving for epsilon, Initial residual = 0.00826933, Final residual = 0.000369701, No Iterations 2
smoothSolver:  Solving for k, Initial residual = 0.0145416, Final residual = 0.000819644, No Iterations 2
ExecutionTime = 914.72 s  ClockTime = 915 s

Time = 81s

smoothSolver:  Solving for Ux, Initial residual = 0.00676697, Final residual = 0.00044498, No Iterations 3
smoothSolver:  Solving for Uy, Initial residual = 0.0428216, Final residual = 0.00307475, No Iterations 3
smoothSolver:  Solving for Uz, Initial residual = 0.0340304, Final residual = 0.00247732, No Iterations 3
GAMG:  Solving for p, Initial residual = 0.00112724, Final residual = 7.55399e-06, No Iterations 4
time step continuity errors : sum local = 0.00185297, global = 0.000392386, cumulative = 0.0245091
smoothSolver:  Solving for epsilon, Initial residual = 0.00814591, Final residual = 0.000363443, No Iterations 2
smoothSolver:  Solving for k, Initial residual = 0.0142387, Final residual = 0.000802252, No Iterations 2
ExecutionTime = 923.961 s  ClockTime = 924 s

Time = 82s

smoothSolver:  Solving for Ux, Initial residual = 0.00663832, Final residual = 0.000434251, No Iterations 3
smoothSolver:  Solving for Uy, Initial residual = 0.0427172, Final residual = 0.0030205, No Iterations 3
smoothSolver:  Solving for Uz, Initial residual = 0.0337174, Final residual = 0.00244454, No Iterations 3
GAMG:  Solving for p, Initial residual = 0.00108571, Final residual = 7.35248e-06, No Iterations 4
time step continuity errors : sum local = 0.00180238, global = 0.000344298, cumulative = 0.0248534
smoothSolver:  Solving for epsilon, Initial residual = 0.00801929, Final residual = 0.000357479, No Iterations 2
smoothSolver:  Solving for k, Initial residual = 0.0139441, Final residual = 0.000785477, No Iterations 2
ExecutionTime = 933.278 s  ClockTime = 933 s

Time = 83s

smoothSolver:  Solving for Ux, Initial residual = 0.00650945, Final residual = 0.000424016, No Iterations 3
smoothSolver:  Solving for Uy, Initial residual = 0.0426013, Final residual = 0.00294571, No Iterations 3
smoothSolver:  Solving for Uz, Initial residual = 0.0333829, Final residual = 0.00240658, No Iterations 3
GAMG:  Solving for p, Initial residual = 0.00104878, Final residual = 6.07e-06, No Iterations 4
time step continuity errors : sum local = 0.00148295, global = 0.000118472, cumulative = 0.0249718
smoothSolver:  Solving for epsilon, Initial residual = 0.00789763, Final residual = 0.000351885, No Iterations 2
smoothSolver:  Solving for k, Initial residual = 0.0136583, Final residual = 0.000769089, No Iterations 2
ExecutionTime = 942.85 s  ClockTime = 943 s

Time = 84s

smoothSolver:  Solving for Ux, Initial residual = 0.00638554, Final residual = 0.000413726, No Iterations 3
smoothSolver:  Solving for Uy, Initial residual = 0.0424557, Final residual = 0.00285149, No Iterations 3
smoothSolver:  Solving for Uz, Initial residual = 0.0330439, Final residual = 0.00235589, No Iterations 3
GAMG:  Solving for p, Initial residual = 0.00101644, Final residual = 5.07637e-06, No Iterations 4
time step continuity errors : sum local = 0.00123355, global = 4.28926e-05, cumulative = 0.0250147
smoothSolver:  Solving for epsilon, Initial residual = 0.00777734, Final residual = 0.000346239, No Iterations 2
smoothSolver:  Solving for k, Initial residual = 0.0133815, Final residual = 0.000752911, No Iterations 2
ExecutionTime = 952.328 s  ClockTime = 952 s

Time = 85s

smoothSolver:  Solving for Ux, Initial residual = 0.006275, Final residual = 0.000403113, No Iterations 3
smoothSolver:  Solving for Uy, Initial residual = 0.0422807, Final residual = 0.00275144, No Iterations 3
smoothSolver:  Solving for Uz, Initial residual = 0.0327267, Final residual = 0.00230532, No Iterations 3
GAMG:  Solving for p, Initial residual = 0.000988063, Final residual = 4.75007e-06, No Iterations 4
time step continuity errors : sum local = 0.00114542, global = 8.95488e-05, cumulative = 0.0251043
smoothSolver:  Solving for epsilon, Initial residual = 0.00765428, Final residual = 0.000340585, No Iterations 2
smoothSolver:  Solving for k, Initial residual = 0.0131069, Final residual = 0.000736951, No Iterations 2
ExecutionTime = 962.13 s  ClockTime = 962 s

Time = 86s

smoothSolver:  Solving for Ux, Initial residual = 0.00618332, Final residual = 0.000391026, No Iterations 3
smoothSolver:  Solving for Uy, Initial residual = 0.0421012, Final residual = 0.00266711, No Iterations 3
smoothSolver:  Solving for Uz, Initial residual = 0.0324299, Final residual = 0.00225919, No Iterations 3
GAMG:  Solving for p, Initial residual = 0.000961439, Final residual = 4.74418e-06, No Iterations 4
time step continuity errors : sum local = 0.00113495, global = 0.000135386, cumulative = 0.0252397
smoothSolver:  Solving for epsilon, Initial residual = 0.00753189, Final residual = 0.000335249, No Iterations 2
smoothSolver:  Solving for k, Initial residual = 0.0128438, Final residual = 0.000721382, No Iterations 2
ExecutionTime = 971.747 s  ClockTime = 972 s

Time = 87s

smoothSolver:  Solving for Ux, Initial residual = 0.00609599, Final residual = 0.000376922, No Iterations 3
smoothSolver:  Solving for Uy, Initial residual = 0.0418949, Final residual = 0.0026049, No Iterations 3
smoothSolver:  Solving for Uz, Initial residual = 0.03213, Final residual = 0.00221394, No Iterations 3
GAMG:  Solving for p, Initial residual = 0.000938055, Final residual = 4.80039e-06, No Iterations 4
time step continuity errors : sum local = 0.00113883, global = 0.00018317, cumulative = 0.0254228
smoothSolver:  Solving for epsilon, Initial residual = 0.00741115, Final residual = 0.000330074, No Iterations 2
smoothSolver:  Solving for k, Initial residual = 0.0125952, Final residual = 0.000706297, No Iterations 2
ExecutionTime = 981.169 s  ClockTime = 981 s

Time = 88s

smoothSolver:  Solving for Ux, Initial residual = 0.00600336, Final residual = 0.000362035, No Iterations 3
smoothSolver:  Solving for Uy, Initial residual = 0.0416408, Final residual = 0.00256025, No Iterations 3
smoothSolver:  Solving for Uz, Initial residual = 0.0318625, Final residual = 0.00217399, No Iterations 3
GAMG:  Solving for p, Initial residual = 0.000918088, Final residual = 4.85712e-06, No Iterations 4
time step continuity errors : sum local = 0.0011417, global = 0.000203906, cumulative = 0.0256268
smoothSolver:  Solving for epsilon, Initial residual = 0.00728992, Final residual = 0.00032488, No Iterations 2
smoothSolver:  Solving for k, Initial residual = 0.012348, Final residual = 0.000691753, No Iterations 2
ExecutionTime = 991.034 s  ClockTime = 991 s

Time = 89s

smoothSolver:  Solving for Ux, Initial residual = 0.00590315, Final residual = 0.000347226, No Iterations 3
smoothSolver:  Solving for Uy, Initial residual = 0.0413181, Final residual = 0.00252266, No Iterations 3
smoothSolver:  Solving for Uz, Initial residual = 0.0316636, Final residual = 0.00213991, No Iterations 3
GAMG:  Solving for p, Initial residual = 0.000900916, Final residual = 5.14157e-06, No Iterations 4
time step continuity errors : sum local = 0.00119603, global = 0.000159325, cumulative = 0.0257861
smoothSolver:  Solving for epsilon, Initial residual = 0.00716983, Final residual = 0.000319678, No Iterations 2
smoothSolver:  Solving for k, Initial residual = 0.0121091, Final residual = 0.000677369, No Iterations 2
ExecutionTime = 1001.22 s  ClockTime = 1001 s

Time = 90s

smoothSolver:  Solving for Ux, Initial residual = 0.0058021, Final residual = 0.000333209, No Iterations 3
smoothSolver:  Solving for Uy, Initial residual = 0.0409162, Final residual = 0.00248356, No Iterations 3
smoothSolver:  Solving for Uz, Initial residual = 0.0315153, Final residual = 0.00210815, No Iterations 3
GAMG:  Solving for p, Initial residual = 0.000883492, Final residual = 4.65968e-06, No Iterations 4
time step continuity errors : sum local = 0.00107104, global = 0.00016424, cumulative = 0.0259503
smoothSolver:  Solving for epsilon, Initial residual = 0.0070478, Final residual = 0.000314252, No Iterations 2
smoothSolver:  Solving for k, Initial residual = 0.011874, Final residual = 0.000663084, No Iterations 2
ExecutionTime = 1011.73 s  ClockTime = 1012 s

Time = 91s

smoothSolver:  Solving for Ux, Initial residual = 0.00570114, Final residual = 0.000320725, No Iterations 3
smoothSolver:  Solving for Uy, Initial residual = 0.0404956, Final residual = 0.00244217, No Iterations 3
smoothSolver:  Solving for Uz, Initial residual = 0.0313723, Final residual = 0.00207894, No Iterations 3
GAMG:  Solving for p, Initial residual = 0.000863277, Final residual = 4.0504e-06, No Iterations 4
time step continuity errors : sum local = 0.000920569, global = 0.000162235, cumulative = 0.0261126
smoothSolver:  Solving for epsilon, Initial residual = 0.00692207, Final residual = 0.000308695, No Iterations 2
smoothSolver:  Solving for k, Initial residual = 0.0116434, Final residual = 0.000649271, No Iterations 2
ExecutionTime = 1022.76 s  ClockTime = 1023 s

Time = 92s

smoothSolver:  Solving for Ux, Initial residual = 0.00560085, Final residual = 0.000310487, No Iterations 3
smoothSolver:  Solving for Uy, Initial residual = 0.0400354, Final residual = 0.00239569, No Iterations 3
smoothSolver:  Solving for Uz, Initial residual = 0.0311997, Final residual = 0.00204945, No Iterations 3
GAMG:  Solving for p, Initial residual = 0.000842852, Final residual = 4.10244e-06, No Iterations 4
time step continuity errors : sum local = 0.000923553, global = 0.000138191, cumulative = 0.0262507
smoothSolver:  Solving for epsilon, Initial residual = 0.0067916, Final residual = 0.000302832, No Iterations 2
smoothSolver:  Solving for k, Initial residual = 0.0114179, Final residual = 0.000635994, No Iterations 2
ExecutionTime = 1034.1 s  ClockTime = 1034 s

Time = 93s

smoothSolver:  Solving for Ux, Initial residual = 0.00550456, Final residual = 0.000302172, No Iterations 3
smoothSolver:  Solving for Uy, Initial residual = 0.0395219, Final residual = 0.00234173, No Iterations 3
smoothSolver:  Solving for Uz, Initial residual = 0.0309831, Final residual = 0.00201835, No Iterations 3
GAMG:  Solving for p, Initial residual = 0.000826313, Final residual = 4.21678e-06, No Iterations 4
time step continuity errors : sum local = 0.000940909, global = 0.00012135, cumulative = 0.0263721
smoothSolver:  Solving for epsilon, Initial residual = 0.00665779, Final residual = 0.000296818, No Iterations 2
smoothSolver:  Solving for k, Initial residual = 0.0111986, Final residual = 0.000623117, No Iterations 2
ExecutionTime = 1044.13 s  ClockTime = 1044 s

Time = 94s

smoothSolver:  Solving for Ux, Initial residual = 0.00540631, Final residual = 0.000294883, No Iterations 3
smoothSolver:  Solving for Uy, Initial residual = 0.0389416, Final residual = 0.00228119, No Iterations 3
smoothSolver:  Solving for Uz, Initial residual = 0.0307457, Final residual = 0.00199033, No Iterations 3
GAMG:  Solving for p, Initial residual = 0.000810258, Final residual = 4.34243e-06, No Iterations 4
time step continuity errors : sum local = 0.000960739, global = 0.000103983, cumulative = 0.0264761
smoothSolver:  Solving for epsilon, Initial residual = 0.00652206, Final residual = 0.000290744, No Iterations 2
smoothSolver:  Solving for k, Initial residual = 0.0109836, Final residual = 0.000610608, No Iterations 2
ExecutionTime = 1054.21 s  ClockTime = 1054 s

Time = 95s

smoothSolver:  Solving for Ux, Initial residual = 0.00530343, Final residual = 0.000287704, No Iterations 3
smoothSolver:  Solving for Uy, Initial residual = 0.0382958, Final residual = 0.00221889, No Iterations 3
smoothSolver:  Solving for Uz, Initial residual = 0.0305041, Final residual = 0.00196524, No Iterations 3
GAMG:  Solving for p, Initial residual = 0.000794955, Final residual = 4.31912e-06, No Iterations 4
time step continuity errors : sum local = 0.000947613, global = 9.86275e-05, cumulative = 0.0265747
smoothSolver:  Solving for epsilon, Initial residual = 0.0063843, Final residual = 0.000284501, No Iterations 2
smoothSolver:  Solving for k, Initial residual = 0.0107728, Final residual = 0.000598543, No Iterations 2
ExecutionTime = 1064.77 s  ClockTime = 1065 s

Time = 96s

smoothSolver:  Solving for Ux, Initial residual = 0.00519664, Final residual = 0.000280942, No Iterations 3
smoothSolver:  Solving for Uy, Initial residual = 0.0376209, Final residual = 0.00215861, No Iterations 3
smoothSolver:  Solving for Uz, Initial residual = 0.0302191, Final residual = 0.00194171, No Iterations 3
GAMG:  Solving for p, Initial residual = 0.000779268, Final residual = 4.20239e-06, No Iterations 4
time step continuity errors : sum local = 0.000913784, global = 0.00012376, cumulative = 0.0266985
smoothSolver:  Solving for epsilon, Initial residual = 0.00624635, Final residual = 0.000278255, No Iterations 2
smoothSolver:  Solving for k, Initial residual = 0.0105702, Final residual = 0.000586928, No Iterations 2
ExecutionTime = 1074.03 s  ClockTime = 1074 s

Time = 97s

smoothSolver:  Solving for Ux, Initial residual = 0.00508457, Final residual = 0.000274675, No Iterations 3
smoothSolver:  Solving for Uy, Initial residual = 0.0369254, Final residual = 0.00210138, No Iterations 3
smoothSolver:  Solving for Uz, Initial residual = 0.0298819, Final residual = 0.00191598, No Iterations 3
GAMG:  Solving for p, Initial residual = 0.00076396, Final residual = 4.17972e-06, No Iterations 4
time step continuity errors : sum local = 0.000900169, global = 0.000153951, cumulative = 0.0268524
smoothSolver:  Solving for epsilon, Initial residual = 0.00611068, Final residual = 0.000272195, No Iterations 2
smoothSolver:  Solving for k, Initial residual = 0.010372, Final residual = 0.000575676, No Iterations 2
ExecutionTime = 1083.65 s  ClockTime = 1084 s

Time = 98s

smoothSolver:  Solving for Ux, Initial residual = 0.00496822, Final residual = 0.000269169, No Iterations 3
smoothSolver:  Solving for Uy, Initial residual = 0.0362256, Final residual = 0.00204704, No Iterations 3
smoothSolver:  Solving for Uz, Initial residual = 0.0295196, Final residual = 0.00188611, No Iterations 3
GAMG:  Solving for p, Initial residual = 0.000748379, Final residual = 4.23055e-06, No Iterations 4
time step continuity errors : sum local = 0.000901885, global = 0.000159571, cumulative = 0.027012
smoothSolver:  Solving for epsilon, Initial residual = 0.00597959, Final residual = 0.000266448, No Iterations 2
smoothSolver:  Solving for k, Initial residual = 0.01018, Final residual = 0.000564881, No Iterations 2
ExecutionTime = 1095.71 s  ClockTime = 1096 s

Time = 99s

smoothSolver:  Solving for Ux, Initial residual = 0.00484546, Final residual = 0.000264274, No Iterations 3
smoothSolver:  Solving for Uy, Initial residual = 0.0355272, Final residual = 0.00199726, No Iterations 3
smoothSolver:  Solving for Uz, Initial residual = 0.0291535, Final residual = 0.00185451, No Iterations 3
GAMG:  Solving for p, Initial residual = 0.000731303, Final residual = 4.10517e-06, No Iterations 4
time step continuity errors : sum local = 0.000865788, global = 0.000148568, cumulative = 0.0271606
[...]
GAMG:  Solving for p, Initial residual = 4.37617e-06, Final residual = 3.49916e-08, No Iterations 3
time step continuity errors : sum local = 3.30566e-06, global = 6.13834e-08, cumulative = 0.0276364
smoothSolver:  Solving for epsilon, Initial residual = 7.0105e-06, Final residual = 4.66407e-07, No Iterations 2
smoothSolver:  Solving for k, Initial residual = 0.000107136, Final residual = 3.65921e-06, No Iterations 3
ExecutionTime = 9551.58 s  ClockTime = 9553 s

Time = 849s

smoothSolver:  Solving for Ux, Initial residual = 4.91039e-06, Final residual = 2.6809e-07, No Iterations 4
smoothSolver:  Solving for Uy, Initial residual = 2.54433e-05, Final residual = 1.58666e-06, No Iterations 4
smoothSolver:  Solving for Uz, Initial residual = 2.73517e-05, Final residual = 1.58572e-06, No Iterations 4
GAMG:  Solving for p, Initial residual = 4.36706e-06, Final residual = 9.35815e-08, No Iterations 2
time step continuity errors : sum local = 8.84386e-06, global = -5.84161e-07, cumulative = 0.0276358
smoothSolver:  Solving for epsilon, Initial residual = 6.99641e-06, Final residual = 4.65409e-07, No Iterations 2
smoothSolver:  Solving for k, Initial residual = 0.000106814, Final residual = 3.64802e-06, No Iterations 3
ExecutionTime = 9566.82 s  ClockTime = 9568 s

Time = 850s

smoothSolver:  Solving for Ux, Initial residual = 4.89803e-06, Final residual = 2.67501e-07, No Iterations 4
smoothSolver:  Solving for Uy, Initial residual = 2.55162e-05, Final residual = 1.59352e-06, No Iterations 4
smoothSolver:  Solving for Uz, Initial residual = 2.73996e-05, Final residual = 1.58884e-06, No Iterations 4
GAMG:  Solving for p, Initial residual = 4.35461e-06, Final residual = 3.4915e-08, No Iterations 3
time step continuity errors : sum local = 3.30066e-06, global = 1.02837e-07, cumulative = 0.0276359
smoothSolver:  Solving for epsilon, Initial residual = 6.98149e-06, Final residual = 4.64265e-07, No Iterations 2
smoothSolver:  Solving for k, Initial residual = 0.000106493, Final residual = 3.63689e-06, No Iterations 3
ExecutionTime = 9583.81 s  ClockTime = 9585 s

Time = 851s

smoothSolver:  Solving for Ux, Initial residual = 4.88795e-06, Final residual = 2.67045e-07, No Iterations 4
smoothSolver:  Solving for Uy, Initial residual = 2.54234e-05, Final residual = 1.5887e-06, No Iterations 4
smoothSolver:  Solving for Uz, Initial residual = 2.72991e-05, Final residual = 1.58365e-06, No Iterations 4
GAMG:  Solving for p, Initial residual = 4.3342e-06, Final residual = 9.83858e-08, No Iterations 2
time step continuity errors : sum local = 9.30435e-06, global = -6.97354e-07, cumulative = 0.0276352
smoothSolver:  Solving for epsilon, Initial residual = 6.96513e-06, Final residual = 4.63068e-07, No Iterations 2
smoothSolver:  Solving for k, Initial residual = 0.000106174, Final residual = 3.62578e-06, No Iterations 3
ExecutionTime = 9600.73 s  ClockTime = 9602 s

Time = 852s

smoothSolver:  Solving for Ux, Initial residual = 4.87627e-06, Final residual = 2.66512e-07, No Iterations 4
smoothSolver:  Solving for Uy, Initial residual = 2.54735e-05, Final residual = 1.59432e-06, No Iterations 4
smoothSolver:  Solving for Uz, Initial residual = 2.73472e-05, Final residual = 1.5876e-06, No Iterations 4
GAMG:  Solving for p, Initial residual = 4.33245e-06, Final residual = 3.80368e-08, No Iterations 3
time step continuity errors : sum local = 3.59832e-06, global = 2.40341e-07, cumulative = 0.0276355
smoothSolver:  Solving for epsilon, Initial residual = 6.95002e-06, Final residual = 4.61999e-07, No Iterations 2
smoothSolver:  Solving for k, Initial residual = 0.000105856, Final residual = 3.61474e-06, No Iterations 3
ExecutionTime = 9617.91 s  ClockTime = 9619 s

Time = 853s

smoothSolver:  Solving for Ux, Initial residual = 4.86837e-06, Final residual = 2.66018e-07, No Iterations 4
smoothSolver:  Solving for Uy, Initial residual = 2.52606e-05, Final residual = 1.57984e-06, No Iterations 4
smoothSolver:  Solving for Uz, Initial residual = 2.71225e-05, Final residual = 1.57359e-06, No Iterations 4
GAMG:  Solving for p, Initial residual = 4.32393e-06, Final residual = 9.78452e-08, No Iterations 2
time step continuity errors : sum local = 9.25946e-06, global = -7.76826e-07, cumulative = 0.0276347
smoothSolver:  Solving for epsilon, Initial residual = 6.93487e-06, Final residual = 4.60844e-07, No Iterations 2
smoothSolver:  Solving for k, Initial residual = 0.00010554, Final residual = 3.60372e-06, No Iterations 3
ExecutionTime = 9634.86 s  ClockTime = 9636 s

Time = 854s

smoothSolver:  Solving for Ux, Initial residual = 4.85754e-06, Final residual = 2.65519e-07, No Iterations 4
smoothSolver:  Solving for Uy, Initial residual = 2.53039e-05, Final residual = 1.58458e-06, No Iterations 4
smoothSolver:  Solving for Uz, Initial residual = 2.71516e-05, Final residual = 1.57526e-06, No Iterations 4
GAMG:  Solving for p, Initial residual = 4.30761e-06, Final residual = 3.8012e-08, No Iterations 3
time step continuity errors : sum local = 3.59861e-06, global = 4.24302e-07, cumulative = 0.0276351
smoothSolver:  Solving for epsilon, Initial residual = 6.92208e-06, Final residual = 4.59867e-07, No Iterations 2
smoothSolver:  Solving for k, Initial residual = 0.000105225, Final residual = 3.59278e-06, No Iterations 3
ExecutionTime = 9651.4 s  ClockTime = 9653 s

Time = 855s

smoothSolver:  Solving for Ux, Initial residual = 4.85242e-06, Final residual = 2.65291e-07, No Iterations 4
smoothSolver:  Solving for Uy, Initial residual = 2.50984e-05, Final residual = 1.57103e-06, No Iterations 4
smoothSolver:  Solving for Uz, Initial residual = 2.68926e-05, Final residual = 1.55837e-06, No Iterations 4
GAMG:  Solving for p, Initial residual = 4.31724e-06, Final residual = 9.45912e-08, No Iterations 2
time step continuity errors : sum local = 8.95791e-06, global = -5.78685e-07, cumulative = 0.0276345
smoothSolver:  Solving for epsilon, Initial residual = 6.90694e-06, Final residual = 4.58652e-07, No Iterations 2
smoothSolver:  Solving for k, Initial residual = 0.000104912, Final residual = 3.58185e-06, No Iterations 3
ExecutionTime = 9668.07 s  ClockTime = 9669 s

Time = 856s

smoothSolver:  Solving for Ux, Initial residual = 4.8395e-06, Final residual = 2.64385e-07, No Iterations 4
smoothSolver:  Solving for Uy, Initial residual = 2.51782e-05, Final residual = 1.57759e-06, No Iterations 4
smoothSolver:  Solving for Uz, Initial residual = 2.69598e-05, Final residual = 1.56228e-06, No Iterations 4
GAMG:  Solving for p, Initial residual = 4.30458e-06, Final residual = 3.59894e-08, No Iterations 3
time step continuity errors : sum local = 3.40936e-06, global = 4.04862e-07, cumulative = 0.0276349
smoothSolver:  Solving for epsilon, Initial residual = 6.8951e-06, Final residual = 4.5785e-07, No Iterations 2
smoothSolver:  Solving for k, Initial residual = 0.0001046, Final residual = 3.571e-06, No Iterations 3
ExecutionTime = 9682.63 s  ClockTime = 9684 s

Time = 857s

smoothSolver:  Solving for Ux, Initial residual = 4.83561e-06, Final residual = 2.64657e-07, No Iterations 4
smoothSolver:  Solving for Uy, Initial residual = 2.506e-05, Final residual = 1.57042e-06, No Iterations 4
smoothSolver:  Solving for Uz, Initial residual = 2.6816e-05, Final residual = 1.55458e-06, No Iterations 4
GAMG:  Solving for p, Initial residual = 4.3091e-06, Final residual = 9.41881e-08, No Iterations 2
time step continuity errors : sum local = 8.92595e-06, global = -4.95202e-07, cumulative = 0.0276344
smoothSolver:  Solving for epsilon, Initial residual = 6.88101e-06, Final residual = 4.56693e-07, No Iterations 2
smoothSolver:  Solving for k, Initial residual = 0.00010429, Final residual = 3.56014e-06, No Iterations 3
ExecutionTime = 9697.82 s  ClockTime = 9699 s

Time = 858s

smoothSolver:  Solving for Ux, Initial residual = 4.82255e-06, Final residual = 2.63669e-07, No Iterations 4
smoothSolver:  Solving for Uy, Initial residual = 2.51444e-05, Final residual = 1.57747e-06, No Iterations 4
smoothSolver:  Solving for Uz, Initial residual = 2.68959e-05, Final residual = 1.55965e-06, No Iterations 4
GAMG:  Solving for p, Initial residual = 4.2953e-06, Final residual = 3.56308e-08, No Iterations 3
time step continuity errors : sum local = 3.37784e-06, global = 2.72782e-07, cumulative = 0.0276347
smoothSolver:  Solving for epsilon, Initial residual = 6.86832e-06, Final residual = 4.55723e-07, No Iterations 2
smoothSolver:  Solving for k, Initial residual = 0.00010398, Final residual = 3.54936e-06, No Iterations 3
ExecutionTime = 9713.81 s  ClockTime = 9715 s

Time = 859s

smoothSolver:  Solving for Ux, Initial residual = 4.81528e-06, Final residual = 2.63443e-07, No Iterations 4
smoothSolver:  Solving for Uy, Initial residual = 2.50078e-05, Final residual = 1.56923e-06, No Iterations 4
smoothSolver:  Solving for Uz, Initial residual = 2.67498e-05, Final residual = 1.55137e-06, No Iterations 4
GAMG:  Solving for p, Initial residual = 4.28321e-06, Final residual = 9.51487e-08, No Iterations 2
time step continuity errors : sum local = 9.02343e-06, global = -6.95364e-07, cumulative = 0.027634
smoothSolver:  Solving for epsilon, Initial residual = 6.85417e-06, Final residual = 4.54619e-07, No Iterations 2
smoothSolver:  Solving for k, Initial residual = 0.000103672, Final residual = 3.53858e-06, No Iterations 3
ExecutionTime = 9730.91 s  ClockTime = 9732 s

Time = 860s

smoothSolver:  Solving for Ux, Initial residual = 4.80237e-06, Final residual = 2.62476e-07, No Iterations 4
smoothSolver:  Solving for Uy, Initial residual = 2.50534e-05, Final residual = 1.57338e-06, No Iterations 4
smoothSolver:  Solving for Uz, Initial residual = 2.67958e-05, Final residual = 1.55445e-06, No Iterations 4
GAMG:  Solving for p, Initial residual = 4.26695e-06, Final residual = 3.65456e-08, No Iterations 3
time step continuity errors : sum local = 3.46698e-06, global = 2.42353e-07, cumulative = 0.0276343
smoothSolver:  Solving for epsilon, Initial residual = 6.83991e-06, Final residual = 4.53604e-07, No Iterations 2
smoothSolver:  Solving for k, Initial residual = 0.000103365, Final residual = 3.52788e-06, No Iterations 3
ExecutionTime = 9745.28 s  ClockTime = 9746 s

Time = 861s

smoothSolver:  Solving for Ux, Initial residual = 4.79571e-06, Final residual = 2.62187e-07, No Iterations 4
smoothSolver:  Solving for Uy, Initial residual = 2.48366e-05, Final residual = 1.55846e-06, No Iterations 4
smoothSolver:  Solving for Uz, Initial residual = 2.6548e-05, Final residual = 1.53929e-06, No Iterations 4
GAMG:  Solving for p, Initial residual = 4.26799e-06, Final residual = 9.38592e-08, No Iterations 2
time step continuity errors : sum local = 8.90718e-06, global = -7.63218e-07, cumulative = 0.0276335
smoothSolver:  Solving for epsilon, Initial residual = 6.82582e-06, Final residual = 4.52514e-07, No Iterations 2
smoothSolver:  Solving for k, Initial residual = 0.000103059, Final residual = 3.51717e-06, No Iterations 3
ExecutionTime = 9754.73 s  ClockTime = 9756 s

Time = 862s

smoothSolver:  Solving for Ux, Initial residual = 4.78363e-06, Final residual = 2.61376e-07, No Iterations 4
smoothSolver:  Solving for Uy, Initial residual = 2.48813e-05, Final residual = 1.56249e-06, No Iterations 4
smoothSolver:  Solving for Uz, Initial residual = 2.65779e-05, Final residual = 1.54133e-06, No Iterations 4
GAMG:  Solving for p, Initial residual = 4.25221e-06, Final residual = 9.97165e-08, No Iterations 2
time step continuity errors : sum local = 9.46676e-06, global = -9.23013e-07, cumulative = 0.0276326
smoothSolver:  Solving for epsilon, Initial residual = 6.81065e-06, Final residual = 4.51335e-07, No Iterations 2
smoothSolver:  Solving for k, Initial residual = 0.000102753, Final residual = 3.50649e-06, No Iterations 3
ExecutionTime = 9764.25 s  ClockTime = 9765 s

Time = 863s

smoothSolver:  Solving for Ux, Initial residual = 4.77089e-06, Final residual = 2.60889e-07, No Iterations 4
smoothSolver:  Solving for Uy, Initial residual = 2.48914e-05, Final residual = 1.56494e-06, No Iterations 4
smoothSolver:  Solving for Uz, Initial residual = 2.65677e-05, Final residual = 1.54215e-06, No Iterations 4
GAMG:  Solving for p, Initial residual = 4.23692e-06, Final residual = 4.0193e-08, No Iterations 3
time step continuity errors : sum local = 3.8172e-06, global = 3.66366e-07, cumulative = 0.0276329
smoothSolver:  Solving for epsilon, Initial residual = 6.79842e-06, Final residual = 4.50545e-07, No Iterations 2
smoothSolver:  Solving for k, Initial residual = 0.000102449, Final residual = 3.49586e-06, No Iterations 3
ExecutionTime = 9774 s  ClockTime = 9775 s

Time = 864s

smoothSolver:  Solving for Ux, Initial residual = 4.76758e-06, Final residual = 2.60766e-07, No Iterations 4
smoothSolver:  Solving for Uy, Initial residual = 2.45717e-05, Final residual = 1.54213e-06, No Iterations 4
smoothSolver:  Solving for Uz, Initial residual = 2.61942e-05, Final residual = 1.51931e-06, No Iterations 4
GAMG:  Solving for p, Initial residual = 4.21786e-06, Final residual = 9.41831e-08, No Iterations 2
time step continuity errors : sum local = 8.94786e-06, global = -7.4797e-07, cumulative = 0.0276322
smoothSolver:  Solving for epsilon, Initial residual = 6.78216e-06, Final residual = 4.49351e-07, No Iterations 2
smoothSolver:  Solving for k, Initial residual = 0.000102145, Final residual = 3.48524e-06, No Iterations 3
ExecutionTime = 9784.2 s  ClockTime = 9785 s

Time = 865s

smoothSolver:  Solving for Ux, Initial residual = 4.75548e-06, Final residual = 2.60341e-07, No Iterations 4
smoothSolver:  Solving for Uy, Initial residual = 2.4629e-05, Final residual = 1.5469e-06, No Iterations 4
smoothSolver:  Solving for Uz, Initial residual = 2.62252e-05, Final residual = 1.52285e-06, No Iterations 4
GAMG:  Solving for p, Initial residual = 4.21724e-06, Final residual = 9.5011e-08, No Iterations 2
time step continuity errors : sum local = 9.0298e-06, global = -7.42621e-07, cumulative = 0.0276315
smoothSolver:  Solving for epsilon, Initial residual = 6.76729e-06, Final residual = 4.48299e-07, No Iterations 2
smoothSolver:  Solving for k, Initial residual = 0.000101842, Final residual = 3.47466e-06, No Iterations 3
ExecutionTime = 9793.83 s  ClockTime = 9795 s

Time = 866s

smoothSolver:  Solving for Ux, Initial residual = 4.74406e-06, Final residual = 2.59876e-07, No Iterations 4
smoothSolver:  Solving for Uy, Initial residual = 2.468e-05, Final residual = 1.55194e-06, No Iterations 4
smoothSolver:  Solving for Uz, Initial residual = 2.62571e-05, Final residual = 1.5275e-06, No Iterations 4
GAMG:  Solving for p, Initial residual = 4.20076e-06, Final residual = 3.90299e-08, No Iterations 3
time step continuity errors : sum local = 3.71067e-06, global = 5.64403e-07, cumulative = 0.027632
smoothSolver:  Solving for epsilon, Initial residual = 6.75434e-06, Final residual = 4.47365e-07, No Iterations 2
smoothSolver:  Solving for k, Initial residual = 0.000101539, Final residual = 3.46413e-06, No Iterations 3
ExecutionTime = 9803.66 s  ClockTime = 9805 s

Time = 867s

smoothSolver:  Solving for Ux, Initial residual = 4.73723e-06, Final residual = 2.5922e-07, No Iterations 4
smoothSolver:  Solving for Uy, Initial residual = 2.44341e-05, Final residual = 1.53496e-06, No Iterations 4
smoothSolver:  Solving for Uz, Initial residual = 2.59637e-05, Final residual = 1.51058e-06, No Iterations 4
GAMG:  Solving for p, Initial residual = 4.19385e-06, Final residual = 9.08056e-08, No Iterations 2
time step continuity errors : sum local = 8.63643e-06, global = -5.25754e-07, cumulative = 0.0276315
smoothSolver:  Solving for epsilon, Initial residual = 6.74001e-06, Final residual = 4.46288e-07, No Iterations 2
smoothSolver:  Solving for k, Initial residual = 0.000101238, Final residual = 3.45361e-06, No Iterations 3
ExecutionTime = 9813.19 s  ClockTime = 9814 s

Time = 868s

smoothSolver:  Solving for Ux, Initial residual = 4.72404e-06, Final residual = 2.58442e-07, No Iterations 4
smoothSolver:  Solving for Uy, Initial residual = 2.45111e-05, Final residual = 1.54087e-06, No Iterations 4
smoothSolver:  Solving for Uz, Initial residual = 2.60454e-05, Final residual = 1.51594e-06, No Iterations 4
GAMG:  Solving for p, Initial residual = 4.18519e-06, Final residual = 9.46969e-08, No Iterations 2
time step continuity errors : sum local = 9.00962e-06, global = -6.41975e-07, cumulative = 0.0276308
smoothSolver:  Solving for epsilon, Initial residual = 6.72531e-06, Final residual = 4.45262e-07, No Iterations 2
smoothSolver:  Solving for k, Initial residual = 0.000100937, Final residual = 3.44312e-06, No Iterations 3
ExecutionTime = 9822.72 s  ClockTime = 9824 s

Time = 869s

smoothSolver:  Solving for Ux, Initial residual = 4.71047e-06, Final residual = 2.57919e-07, No Iterations 4
smoothSolver:  Solving for Uy, Initial residual = 2.45617e-05, Final residual = 1.54675e-06, No Iterations 4
smoothSolver:  Solving for Uz, Initial residual = 2.611e-05, Final residual = 1.52181e-06, No Iterations 4
GAMG:  Solving for p, Initial residual = 4.17282e-06, Final residual = 3.90856e-08, No Iterations 3
time step continuity errors : sum local = 3.71997e-06, global = 5.88433e-07, cumulative = 0.0276314
smoothSolver:  Solving for epsilon, Initial residual = 6.71168e-06, Final residual = 4.44232e-07, No Iterations 2
smoothSolver:  Solving for k, Initial residual = 0.000100638, Final residual = 3.43269e-06, No Iterations 3
ExecutionTime = 9832.31 s  ClockTime = 9834 s

Time = 870s

smoothSolver:  Solving for Ux, Initial residual = 4.70761e-06, Final residual = 2.57777e-07, No Iterations 4
smoothSolver:  Solving for Uy, Initial residual = 2.42774e-05, Final residual = 1.52685e-06, No Iterations 4
smoothSolver:  Solving for Uz, Initial residual = 2.58098e-05, Final residual = 1.5031e-06, No Iterations 4
GAMG:  Solving for p, Initial residual = 4.1565e-06, Final residual = 9.0861e-08, No Iterations 2
time step continuity errors : sum local = 8.65121e-06, global = -6.28607e-07, cumulative = 0.0276308
smoothSolver:  Solving for epsilon, Initial residual = 6.70024e-06, Final residual = 4.4341e-07, No Iterations 2
smoothSolver:  Solving for k, Initial residual = 0.000100339, Final residual = 3.42227e-06, No Iterations 3
ExecutionTime = 9841.81 s  ClockTime = 9843 s

Time = 871s

smoothSolver:  Solving for Ux, Initial residual = 4.69313e-06, Final residual = 2.56869e-07, No Iterations 4
smoothSolver:  Solving for Uy, Initial residual = 2.43497e-05, Final residual = 1.53235e-06, No Iterations 4
smoothSolver:  Solving for Uz, Initial residual = 2.58926e-05, Final residual = 1.50873e-06, No Iterations 4
GAMG:  Solving for p, Initial residual = 4.14857e-06, Final residual = 9.37248e-08, No Iterations 2
time step continuity errors : sum local = 8.92712e-06, global = -7.71749e-07, cumulative = 0.02763
smoothSolver:  Solving for epsilon, Initial residual = 6.68657e-06, Final residual = 4.42349e-07, No Iterations 2
smoothSolver:  Solving for k, Initial residual = 0.000100041, Final residual = 3.41188e-06, No Iterations 3
ExecutionTime = 9851.17 s  ClockTime = 9852 s

Time = 872s

smoothSolver:  Solving for Ux, Initial residual = 4.67986e-06, Final residual = 2.56025e-07, No Iterations 4
smoothSolver:  Solving for Uy, Initial residual = 2.43912e-05, Final residual = 1.53643e-06, No Iterations 4
smoothSolver:  Solving for Uz, Initial residual = 2.59419e-05, Final residual = 1.51268e-06, No Iterations 4
GAMG:  Solving for p, Initial residual = 4.11793e-06, Final residual = 3.86059e-08, No Iterations 3
time step continuity errors : sum local = 3.67849e-06, global = 4.50538e-07, cumulative = 0.0276305
smoothSolver:  Solving for epsilon, Initial residual = 6.6735e-06, Final residual = 4.41432e-07, No Iterations 2
smoothSolver:  Solving for k, Initial residual = 9.97445e-05, Final residual = 3.40155e-06, No Iterations 3
ExecutionTime = 9860.39 s  ClockTime = 9862 s


SIMPLE solution converged in 872 iterations

End

Finalising parallel run
