/*---------------------------------------------------------------------------*\
  =========                 |
  \\      /  F ield         | OpenFOAM: The Open Source CFD Toolbox
   \\    /   O peration     | Website:  https://openfoam.org
    \\  /    A nd           | Version:  11
     \\/     M anipulation  |
\*---------------------------------------------------------------------------*/
Build  : 11-d496a603da00
Exec   : foamRun -solver incompressibleFluid -parallel
Date   : Oct 25 2023
Time   : 00:21:14
Host   : "Laptop"
PID    : 560705
I/O    : uncollated
Case   : /home/tiago/OpenFOAM/tiago-11/run/wind_tunnel_SA_WallModel_Sym_ExtraFine
nProcs : 4
Slaves : 
3
(
"Laptop.560706"
"Laptop.560708"
"Laptop.560712"
)

Pstream initialised with:
    floatTransfer      : false
    nProcsSimpleSum    : 0
    commsType          : nonBlocking
    polling iterations : 0
sigFpe : Enabling floating point exception trapping (FOAM_SIGFPE).
fileModificationChecking : Monitoring run-time modified files using timeStampMaster (fileModificationSkew 10)
allowSystemOperations : Allowing user-supplied system call operations

// * * * * * * * * * * * * * * * * * * * * * * * * * * * * * * * * * * * * * //
Create time

Create mesh for time = 0

Selecting solver incompressibleFluid
Selecting viscosity model constant
Selecting turbulence model type RAS
Selecting RAS turbulence model SpalartAllmaras
Selecting patchDistMethod meshWave
RAS
{
    model           SpalartAllmaras;
    turbulence      on;
    printCoeffs     on;
    sigmaNut        0.66666;
    kappa           0.41;
    Cb1             0.1355;
    Cb2             0.622;
    Cw2             0.3;
    Cw3             2;
    Cv1             7.1;
    Cs              0.3;
}

No MRF models present


SIMPLE: Convergence criteria found
        p: tolerance 0.0001
        U: tolerance 0.0001
        nuTilda: tolerance 0.0001


SIMPLE: Operating solver in steady-state mode with 1 outer corrector
SIMPLE: Operating solver in SIMPLE mode



Starting time loop

Time = 1s

smoothSolver:  Solving for Ux, Initial residual = 1, Final residual = 4.25334e-05, No Iterations 2
smoothSolver:  Solving for Uy, Initial residual = 1, Final residual = 0.0215405, No Iterations 2
smoothSolver:  Solving for Uz, Initial residual = 1, Final residual = 0.0209896, No Iterations 2
GAMG:  Solving for p, Initial residual = 1, Final residual = 0.00527095, No Iterations 24
time step continuity errors : sum local = 0.00365813, global = 0.000825269, cumulative = 0.000825269
smoothSolver:  Solving for nuTilda, Initial residual = 1, Final residual = 0.0238399, No Iterations 4
bounding nuTilda, min: -0.00286627 max: 0.0374 average: 0.000156988
ExecutionTime = 26.1357 s  ClockTime = 26 s

Time = 2s

smoothSolver:  Solving for Ux, Initial residual = 0.0571102, Final residual = 0.00404162, No Iterations 4
smoothSolver:  Solving for Uy, Initial residual = 0.154593, Final residual = 0.00920994, No Iterations 4
smoothSolver:  Solving for Uz, Initial residual = 0.154155, Final residual = 0.00927409, No Iterations 4
GAMG:  Solving for p, Initial residual = 0.0051421, Final residual = 3.51948e-05, No Iterations 24
time step continuity errors : sum local = 0.00801977, global = 0.000833063, cumulative = 0.00165833
smoothSolver:  Solving for nuTilda, Initial residual = 0.138131, Final residual = 0.00405251, No Iterations 4
bounding nuTilda, min: -0.000454075 max: 0.0374 average: 0.000221024
ExecutionTime = 36.7039 s  ClockTime = 37 s

Time = 3s

smoothSolver:  Solving for Ux, Initial residual = 0.436926, Final residual = 0.019495, No Iterations 6
smoothSolver:  Solving for Uy, Initial residual = 0.364844, Final residual = 0.0156467, No Iterations 6
smoothSolver:  Solving for Uz, Initial residual = 0.344225, Final residual = 0.014799, No Iterations 6
GAMG:  Solving for p, Initial residual = 1.65238e-05, Final residual = 1.06992e-07, No Iterations 10
time step continuity errors : sum local = 0.0129931, global = -0.00286329, cumulative = -0.00120496
smoothSolver:  Solving for nuTilda, Initial residual = 0.0753245, Final residual = 0.00254657, No Iterations 4
bounding nuTilda, min: -0.000104928 max: 0.0374 average: 0.000276104
ExecutionTime = 44.8457 s  ClockTime = 45 s

Time = 4s

smoothSolver:  Solving for Ux, Initial residual = 0.248705, Final residual = 0.0117877, No Iterations 6
smoothSolver:  Solving for Uy, Initial residual = 0.203837, Final residual = 0.010086, No Iterations 6
smoothSolver:  Solving for Uz, Initial residual = 0.201895, Final residual = 0.00955304, No Iterations 6
GAMG:  Solving for p, Initial residual = 1.75933e-05, Final residual = 1.63464e-07, No Iterations 16
time step continuity errors : sum local = 0.0188708, global = -0.00203313, cumulative = -0.00323809
smoothSolver:  Solving for nuTilda, Initial residual = 0.0527408, Final residual = 0.00185038, No Iterations 4
bounding nuTilda, min: -4.82329e-05 max: 0.0374 average: 0.000328617
ExecutionTime = 54.403 s  ClockTime = 55 s

Time = 5s

smoothSolver:  Solving for Ux, Initial residual = 0.0510227, Final residual = 0.00222429, No Iterations 4
smoothSolver:  Solving for Uy, Initial residual = 0.0930407, Final residual = 0.00779289, No Iterations 4
smoothSolver:  Solving for Uz, Initial residual = 0.0907262, Final residual = 0.00795073, No Iterations 4
GAMG:  Solving for p, Initial residual = 0.000779336, Final residual = 7.24366e-06, No Iterations 14
time step continuity errors : sum local = 0.0206571, global = -0.0035351, cumulative = -0.00677319
smoothSolver:  Solving for nuTilda, Initial residual = 0.0416367, Final residual = 0.00147459, No Iterations 4
bounding nuTilda, min: -0.000293086 max: 0.0374 average: 0.000380828
ExecutionTime = 64.6648 s  ClockTime = 65 s

Time = 6s

smoothSolver:  Solving for Ux, Initial residual = 0.227256, Final residual = 0.0218822, No Iterations 4
smoothSolver:  Solving for Uy, Initial residual = 0.148093, Final residual = 0.0142868, No Iterations 4
smoothSolver:  Solving for Uz, Initial residual = 0.134851, Final residual = 0.0127395, No Iterations 4
GAMG:  Solving for p, Initial residual = 2.85983e-05, Final residual = 2.8172e-07, No Iterations 7
time step continuity errors : sum local = 0.0237486, global = -0.000673943, cumulative = -0.00744713
smoothSolver:  Solving for nuTilda, Initial residual = 0.034554, Final residual = 0.00122531, No Iterations 4
ExecutionTime = 72.9317 s  ClockTime = 73 s

Time = 7s

smoothSolver:  Solving for Ux, Initial residual = 0.200441, Final residual = 0.0102736, No Iterations 6
smoothSolver:  Solving for Uy, Initial residual = 0.15321, Final residual = 0.0065501, No Iterations 6
smoothSolver:  Solving for Uz, Initial residual = 0.152343, Final residual = 0.0148693, No Iterations 4
GAMG:  Solving for p, Initial residual = 2.92028e-05, Final residual = 2.20947e-07, No Iterations 16
time step continuity errors : sum local = 0.0163129, global = 0.00313222, cumulative = -0.00431491
smoothSolver:  Solving for nuTilda, Initial residual = 0.0294691, Final residual = 0.00104309, No Iterations 4
bounding nuTilda, min: -0.000328332 max: 0.0374 average: 0.000483971
ExecutionTime = 83.4155 s  ClockTime = 84 s

Time = 8s

smoothSolver:  Solving for Ux, Initial residual = 0.0642984, Final residual = 0.00277926, No Iterations 4
smoothSolver:  Solving for Uy, Initial residual = 0.0871182, Final residual = 0.00658421, No Iterations 4
smoothSolver:  Solving for Uz, Initial residual = 0.0861707, Final residual = 0.00661428, No Iterations 4
GAMG:  Solving for p, Initial residual = 0.0236614, Final residual = 0.00022661, No Iterations 12
time step continuity errors : sum local = 0.0169395, global = 0.00338319, cumulative = -0.000931713
smoothSolver:  Solving for nuTilda, Initial residual = 0.0258503, Final residual = 0.000909479, No Iterations 4
bounding nuTilda, min: -3.84928e-05 max: 0.0374 average: 0.000535108
ExecutionTime = 95.7658 s  ClockTime = 96 s

Time = 9s

smoothSolver:  Solving for Ux, Initial residual = 0.14437, Final residual = 0.0137223, No Iterations 4
smoothSolver:  Solving for Uy, Initial residual = 0.10517, Final residual = 0.00980721, No Iterations 4
smoothSolver:  Solving for Uz, Initial residual = 0.0951639, Final residual = 0.00801453, No Iterations 4
GAMG:  Solving for p, Initial residual = 3.1749e-05, Final residual = 2.25131e-07, No Iterations 7
time step continuity errors : sum local = 0.0119543, global = -0.00144899, cumulative = -0.00238071
smoothSolver:  Solving for nuTilda, Initial residual = 0.023054, Final residual = 0.000804805, No Iterations 4
bounding nuTilda, min: -0.00044186 max: 0.0374 average: 0.000586548
ExecutionTime = 103.697 s  ClockTime = 104 s

Time = 10s

smoothSolver:  Solving for Ux, Initial residual = 0.0882374, Final residual = 0.00444876, No Iterations 6
smoothSolver:  Solving for Uy, Initial residual = 0.0865348, Final residual = 0.00366352, No Iterations 6
smoothSolver:  Solving for Uz, Initial residual = 0.084335, Final residual = 0.00822007, No Iterations 4
GAMG:  Solving for p, Initial residual = 3.53875e-05, Final residual = 3.0176e-07, No Iterations 14
time step continuity errors : sum local = 0.0133253, global = -0.00321335, cumulative = -0.00559406
smoothSolver:  Solving for nuTilda, Initial residual = 0.0208757, Final residual = 0.000721796, No Iterations 4
bounding nuTilda, min: -0.000101615 max: 0.0374 average: 0.000638181
ExecutionTime = 112.496 s  ClockTime = 113 s

Time = 11s

smoothSolver:  Solving for Ux, Initial residual = 0.0399465, Final residual = 0.00167502, No Iterations 4
smoothSolver:  Solving for Uy, Initial residual = 0.0623479, Final residual = 0.00480211, No Iterations 4
smoothSolver:  Solving for Uz, Initial residual = 0.0608955, Final residual = 0.0049449, No Iterations 4
GAMG:  Solving for p, Initial residual = 0.00200016, Final residual = 1.36077e-05, No Iterations 10
time step continuity errors : sum local = 0.010376, global = -0.00147983, cumulative = -0.00707389
smoothSolver:  Solving for nuTilda, Initial residual = 0.0190377, Final residual = 0.000653044, No Iterations 4
bounding nuTilda, min: -0.000440118 max: 0.0374 average: 0.000688697
ExecutionTime = 120.114 s  ClockTime = 120 s

Time = 12s

smoothSolver:  Solving for Ux, Initial residual = 0.0786873, Final residual = 0.0075556, No Iterations 4
smoothSolver:  Solving for Uy, Initial residual = 0.0744495, Final residual = 0.00634829, No Iterations 4
smoothSolver:  Solving for Uz, Initial residual = 0.0660527, Final residual = 0.00498834, No Iterations 4
GAMG:  Solving for p, Initial residual = 5.58833e-05, Final residual = 3.53636e-07, No Iterations 7
time step continuity errors : sum local = 0.0092287, global = 0.00053021, cumulative = -0.00654368
smoothSolver:  Solving for nuTilda, Initial residual = 0.0174176, Final residual = 0.00059569, No Iterations 4
bounding nuTilda, min: -8.77638e-05 max: 0.0374 average: 0.00073702
ExecutionTime = 126.42 s  ClockTime = 127 s

Time = 13s

smoothSolver:  Solving for Ux, Initial residual = 0.054883, Final residual = 0.00290592, No Iterations 6
smoothSolver:  Solving for Uy, Initial residual = 0.0683002, Final residual = 0.00617245, No Iterations 4
smoothSolver:  Solving for Uz, Initial residual = 0.0641014, Final residual = 0.00561101, No Iterations 4
GAMG:  Solving for p, Initial residual = 6.2645e-05, Final residual = 4.39331e-07, No Iterations 12
time step continuity errors : sum local = 0.00939038, global = 0.0017663, cumulative = -0.00477738
smoothSolver:  Solving for nuTilda, Initial residual = 0.0160169, Final residual = 0.000547197, No Iterations 4
bounding nuTilda, min: -0.000449837 max: 0.0374 average: 0.000783354
ExecutionTime = 133.986 s  ClockTime = 134 s

Time = 14s

smoothSolver:  Solving for Ux, Initial residual = 0.0351837, Final residual = 0.00144367, No Iterations 4
smoothSolver:  Solving for Uy, Initial residual = 0.0562701, Final residual = 0.00401805, No Iterations 4
smoothSolver:  Solving for Uz, Initial residual = 0.0541051, Final residual = 0.0038955, No Iterations 4
GAMG:  Solving for p, Initial residual = 0.000405266, Final residual = 3.85328e-06, No Iterations 8
time step continuity errors : sum local = 0.0119935, global = 0.00164828, cumulative = -0.0031291
smoothSolver:  Solving for nuTilda, Initial residual = 0.0148531, Final residual = 0.000506924, No Iterations 4
bounding nuTilda, min: -4.47246e-05 max: 0.0374 average: 0.000828751
ExecutionTime = 140.658 s  ClockTime = 141 s

Time = 15s

smoothSolver:  Solving for Ux, Initial residual = 0.0512324, Final residual = 0.00462733, No Iterations 4
smoothSolver:  Solving for Uy, Initial residual = 0.0600741, Final residual = 0.00473817, No Iterations 4
smoothSolver:  Solving for Uz, Initial residual = 0.0570012, Final residual = 0.0037645, No Iterations 4
GAMG:  Solving for p, Initial residual = 6.0754e-05, Final residual = 3.26386e-07, No Iterations 7
time step continuity errors : sum local = 0.00642544, global = -0.000578317, cumulative = -0.00370742
smoothSolver:  Solving for nuTilda, Initial residual = 0.0138665, Final residual = 0.000472604, No Iterations 4
bounding nuTilda, min: -0.000457042 max: 0.0374 average: 0.000873437
ExecutionTime = 147.452 s  ClockTime = 148 s

Time = 16s

smoothSolver:  Solving for Ux, Initial residual = 0.0342677, Final residual = 0.00159317, No Iterations 6
smoothSolver:  Solving for Uy, Initial residual = 0.0588537, Final residual = 0.00469647, No Iterations 4
smoothSolver:  Solving for Uz, Initial residual = 0.0553573, Final residual = 0.00413611, No Iterations 4
GAMG:  Solving for p, Initial residual = 6.57008e-05, Final residual = 4.36479e-07, No Iterations 10
time step continuity errors : sum local = 0.0074022, global = -0.00132838, cumulative = -0.0050358
smoothSolver:  Solving for nuTilda, Initial residual = 0.013007, Final residual = 0.000442994, No Iterations 4
bounding nuTilda, min: -3.50262e-05 max: 0.0374 average: 0.000916909
ExecutionTime = 155.054 s  ClockTime = 155 s

Time = 17s

smoothSolver:  Solving for Ux, Initial residual = 0.0260285, Final residual = 0.00122904, No Iterations 4
smoothSolver:  Solving for Uy, Initial residual = 0.0513889, Final residual = 0.00331571, No Iterations 4
smoothSolver:  Solving for Uz, Initial residual = 0.0493798, Final residual = 0.00311854, No Iterations 4
GAMG:  Solving for p, Initial residual = 0.000729276, Final residual = 4.55596e-06, No Iterations 7
time step continuity errors : sum local = 0.00697423, global = -0.000604899, cumulative = -0.0056407
smoothSolver:  Solving for nuTilda, Initial residual = 0.0122682, Final residual = 0.000417342, No Iterations 4
bounding nuTilda, min: -0.000460483 max: 0.0374 average: 0.000958695
ExecutionTime = 161.464 s  ClockTime = 162 s

Time = 18s

smoothSolver:  Solving for Ux, Initial residual = 0.0341257, Final residual = 0.00296877, No Iterations 4
smoothSolver:  Solving for Uy, Initial residual = 0.049102, Final residual = 0.00319424, No Iterations 4
smoothSolver:  Solving for Uz, Initial residual = 0.0467247, Final residual = 0.00258686, No Iterations 4
GAMG:  Solving for p, Initial residual = 0.000123179, Final residual = 8.40983e-07, No Iterations 6
time step continuity errors : sum local = 0.00757794, global = 0.000815964, cumulative = -0.00482473
smoothSolver:  Solving for nuTilda, Initial residual = 0.0116599, Final residual = 0.000395041, No Iterations 4
bounding nuTilda, min: -2.57705e-05 max: 0.0374 average: 0.000999148
ExecutionTime = 167.89 s  ClockTime = 168 s

Time = 19s

smoothSolver:  Solving for Ux, Initial residual = 0.0268941, Final residual = 0.00255016, No Iterations 4
smoothSolver:  Solving for Uy, Initial residual = 0.0500868, Final residual = 0.00328644, No Iterations 4
smoothSolver:  Solving for Uz, Initial residual = 0.0477884, Final residual = 0.00293598, No Iterations 4
GAMG:  Solving for p, Initial residual = 0.000152639, Final residual = 8.96309e-07, No Iterations 7
time step continuity errors : sum local = 0.00628118, global = 0.00114106, cumulative = -0.00368367
smoothSolver:  Solving for nuTilda, Initial residual = 0.0110821, Final residual = 0.000374844, No Iterations 4
bounding nuTilda, min: -0.00046139 max: 0.0374 average: 0.00103899
ExecutionTime = 174.74 s  ClockTime = 175 s

Time = 20s

smoothSolver:  Solving for Ux, Initial residual = 0.0220367, Final residual = 0.00102706, No Iterations 4
smoothSolver:  Solving for Uy, Initial residual = 0.0494712, Final residual = 0.00282603, No Iterations 4
smoothSolver:  Solving for Uz, Initial residual = 0.0482744, Final residual = 0.0026192, No Iterations 4
GAMG:  Solving for p, Initial residual = 0.000275327, Final residual = 2.46678e-06, No Iterations 7
time step continuity errors : sum local = 0.00941051, global = 0.00185903, cumulative = -0.00182464
smoothSolver:  Solving for nuTilda, Initial residual = 0.0105585, Final residual = 0.00035692, No Iterations 4
bounding nuTilda, min: -2.17138e-05 max: 0.0374 average: 0.00107858
ExecutionTime = 181.871 s  ClockTime = 182 s

Time = 21s

smoothSolver:  Solving for Ux, Initial residual = 0.0245141, Final residual = 0.00180712, No Iterations 4
smoothSolver:  Solving for Uy, Initial residual = 0.050871, Final residual = 0.00282079, No Iterations 4
smoothSolver:  Solving for Uz, Initial residual = 0.0485004, Final residual = 0.00240995, No Iterations 4
GAMG:  Solving for p, Initial residual = 7.46704e-05, Final residual = 3.74209e-07, No Iterations 6
time step continuity errors : sum local = 0.00521786, global = -0.000428259, cumulative = -0.0022529
smoothSolver:  Solving for nuTilda, Initial residual = 0.010085, Final residual = 0.00034061, No Iterations 4
bounding nuTilda, min: -0.000461071 max: 0.0374 average: 0.00111793
ExecutionTime = 188.75 s  ClockTime = 189 s

Time = 22s

smoothSolver:  Solving for Ux, Initial residual = 0.0223435, Final residual = 0.00171731, No Iterations 4
smoothSolver:  Solving for Uy, Initial residual = 0.0505762, Final residual = 0.00281956, No Iterations 4
smoothSolver:  Solving for Uz, Initial residual = 0.0474866, Final residual = 0.00254021, No Iterations 4
GAMG:  Solving for p, Initial residual = 8.80957e-05, Final residual = 8.01529e-07, No Iterations 6
time step continuity errors : sum local = 0.00928335, global = -0.00272147, cumulative = -0.00497437
smoothSolver:  Solving for nuTilda, Initial residual = 0.00967152, Final residual = 0.000325927, No Iterations 4
bounding nuTilda, min: -4.48906e-05 max: 0.0374 average: 0.00115682
ExecutionTime = 195.51 s  ClockTime = 196 s

Time = 23s

smoothSolver:  Solving for Ux, Initial residual = 0.0194611, Final residual = 0.000902686, No Iterations 4
smoothSolver:  Solving for Uy, Initial residual = 0.0475446, Final residual = 0.00237398, No Iterations 4
smoothSolver:  Solving for Uz, Initial residual = 0.0447632, Final residual = 0.00219222, No Iterations 4
GAMG:  Solving for p, Initial residual = 0.000362717, Final residual = 2.89223e-06, No Iterations 7
time step continuity errors : sum local = 0.00807258, global = -0.000533152, cumulative = -0.00550753
smoothSolver:  Solving for nuTilda, Initial residual = 0.00930217, Final residual = 0.000312568, No Iterations 4
bounding nuTilda, min: -0.000461165 max: 0.0374 average: 0.00119515
ExecutionTime = 202.316 s  ClockTime = 203 s

Time = 24s

smoothSolver:  Solving for Ux, Initial residual = 0.0202619, Final residual = 0.00129873, No Iterations 4
smoothSolver:  Solving for Uy, Initial residual = 0.0472003, Final residual = 0.00227728, No Iterations 4
smoothSolver:  Solving for Uz, Initial residual = 0.0436363, Final residual = 0.00193582, No Iterations 4
GAMG:  Solving for p, Initial residual = 0.00258418, Final residual = 2.33562e-05, No Iterations 5
time step continuity errors : sum local = 0.00910306, global = 0.00164111, cumulative = -0.00386642
smoothSolver:  Solving for nuTilda, Initial residual = 0.00896034, Final residual = 0.000300398, No Iterations 4
bounding nuTilda, min: -3.47625e-05 max: 0.0374 average: 0.00123308
ExecutionTime = 208.953 s  ClockTime = 209 s

Time = 25s

smoothSolver:  Solving for Ux, Initial residual = 0.0193285, Final residual = 0.00125261, No Iterations 4
smoothSolver:  Solving for Uy, Initial residual = 0.048975, Final residual = 0.0023582, No Iterations 4
smoothSolver:  Solving for Uz, Initial residual = 0.0451568, Final residual = 0.00209896, No Iterations 4
GAMG:  Solving for p, Initial residual = 0.0130843, Final residual = 9.74019e-05, No Iterations 5
time step continuity errors : sum local = 0.00748351, global = 0.00152079, cumulative = -0.00234563
smoothSolver:  Solving for nuTilda, Initial residual = 0.00863842, Final residual = 0.00028904, No Iterations 4
bounding nuTilda, min: -0.000460833 max: 0.0374 average: 0.00127081
ExecutionTime = 215.992 s  ClockTime = 216 s

Time = 26s

smoothSolver:  Solving for Ux, Initial residual = 0.0176984, Final residual = 0.000907711, No Iterations 4
smoothSolver:  Solving for Uy, Initial residual = 0.0497137, Final residual = 0.00220142, No Iterations 4
smoothSolver:  Solving for Uz, Initial residual = 0.0455119, Final residual = 0.00200924, No Iterations 4
GAMG:  Solving for p, Initial residual = 0.000678261, Final residual = 4.62105e-06, No Iterations 7
time step continuity errors : sum local = 0.00691471, global = 0.00215047, cumulative = -0.000195162
smoothSolver:  Solving for nuTilda, Initial residual = 0.0083394, Final residual = 0.000278606, No Iterations 4
bounding nuTilda, min: -4.8592e-05 max: 0.0374 average: 0.00130843
ExecutionTime = 223.351 s  ClockTime = 224 s

Time = 27s

smoothSolver:  Solving for Ux, Initial residual = 0.0178348, Final residual = 0.000963948, No Iterations 4
smoothSolver:  Solving for Uy, Initial residual = 0.0495848, Final residual = 0.00206607, No Iterations 4
smoothSolver:  Solving for Uz, Initial residual = 0.0449539, Final residual = 0.00180164, No Iterations 4
GAMG:  Solving for p, Initial residual = 0.000400283, Final residual = 2.44262e-06, No Iterations 5
time step continuity errors : sum local = 0.00632454, global = 0.00176522, cumulative = 0.00157006
smoothSolver:  Solving for nuTilda, Initial residual = 0.00806638, Final residual = 0.000268865, No Iterations 4
bounding nuTilda, min: -0.000460258 max: 0.0374 average: 0.00134589
ExecutionTime = 231.048 s  ClockTime = 231 s

Time = 28s

smoothSolver:  Solving for Ux, Initial residual = 0.018452, Final residual = 0.00100194, No Iterations 4
smoothSolver:  Solving for Uy, Initial residual = 0.0490076, Final residual = 0.00207642, No Iterations 4
smoothSolver:  Solving for Uz, Initial residual = 0.0441144, Final residual = 0.00182316, No Iterations 4
GAMG:  Solving for p, Initial residual = 0.000425451, Final residual = 2.9835e-06, No Iterations 4
time step continuity errors : sum local = 0.00737035, global = -0.00101268, cumulative = 0.000557373
smoothSolver:  Solving for nuTilda, Initial residual = 0.00782456, Final residual = 0.000260073, No Iterations 4
bounding nuTilda, min: -5.93667e-05 max: 0.0374007 average: 0.00138315
ExecutionTime = 238.279 s  ClockTime = 239 s

Time = 29s

smoothSolver:  Solving for Ux, Initial residual = 0.017533, Final residual = 0.000813453, No Iterations 4
smoothSolver:  Solving for Uy, Initial residual = 0.0489646, Final residual = 0.00210219, No Iterations 4
smoothSolver:  Solving for Uz, Initial residual = 0.0435911, Final residual = 0.00180017, No Iterations 4
GAMG:  Solving for p, Initial residual = 0.000636068, Final residual = 5.13691e-06, No Iterations 4
time step continuity errors : sum local = 0.00845673, global = -0.00171566, cumulative = -0.00115829
smoothSolver:  Solving for nuTilda, Initial residual = 0.00760403, Final residual = 0.000251744, No Iterations 4
bounding nuTilda, min: -0.000460238 max: 0.0374019 average: 0.00142014
ExecutionTime = 245.716 s  ClockTime = 246 s

Time = 30s

smoothSolver:  Solving for Ux, Initial residual = 0.0171819, Final residual = 0.000828035, No Iterations 4
smoothSolver:  Solving for Uy, Initial residual = 0.0497992, Final residual = 0.00217041, No Iterations 4
smoothSolver:  Solving for Uz, Initial residual = 0.0442055, Final residual = 0.00176622, No Iterations 4
GAMG:  Solving for p, Initial residual = 0.00118089, Final residual = 8.61439e-06, No Iterations 4
time step continuity errors : sum local = 0.00770852, global = -0.00171037, cumulative = -0.00286866
smoothSolver:  Solving for nuTilda, Initial residual = 0.00740246, Final residual = 0.000244109, No Iterations 4
bounding nuTilda, min: -5.72869e-05 max: 0.0374027 average: 0.00145689
ExecutionTime = 252.2 s  ClockTime = 252 s

Time = 31s

smoothSolver:  Solving for Ux, Initial residual = 0.0171712, Final residual = 0.000858561, No Iterations 4
smoothSolver:  Solving for Uy, Initial residual = 0.0508577, Final residual = 0.00226311, No Iterations 4
smoothSolver:  Solving for Uz, Initial residual = 0.0453829, Final residual = 0.00191428, No Iterations 4
GAMG:  Solving for p, Initial residual = 0.00131096, Final residual = 7.72977e-06, No Iterations 4
time step continuity errors : sum local = 0.00632384, global = -0.00148335, cumulative = -0.00435201
smoothSolver:  Solving for nuTilda, Initial residual = 0.00721494, Final residual = 0.000236897, No Iterations 4
bounding nuTilda, min: -0.00046017 max: 0.0374029 average: 0.00149343
ExecutionTime = 258.319 s  ClockTime = 259 s

Time = 32s

smoothSolver:  Solving for Ux, Initial residual = 0.01676, Final residual = 0.000792093, No Iterations 4
smoothSolver:  Solving for Uy, Initial residual = 0.0512774, Final residual = 0.00227538, No Iterations 4
smoothSolver:  Solving for Uz, Initial residual = 0.0456247, Final residual = 0.00196991, No Iterations 4
GAMG:  Solving for p, Initial residual = 0.000884722, Final residual = 5.03506e-06, No Iterations 4
time step continuity errors : sum local = 0.00621757, global = -0.000560839, cumulative = -0.00491285
smoothSolver:  Solving for nuTilda, Initial residual = 0.00704121, Final residual = 0.000230117, No Iterations 4
bounding nuTilda, min: -9.47617e-05 max: 0.0374029 average: 0.00152979
ExecutionTime = 264.622 s  ClockTime = 265 s

Time = 33s

smoothSolver:  Solving for Ux, Initial residual = 0.0164736, Final residual = 0.000709777, No Iterations 4
smoothSolver:  Solving for Uy, Initial residual = 0.0512553, Final residual = 0.00223587, No Iterations 4
smoothSolver:  Solving for Uz, Initial residual = 0.0450808, Final residual = 0.00187786, No Iterations 4
GAMG:  Solving for p, Initial residual = 0.000608931, Final residual = 3.1731e-06, No Iterations 4
time step continuity errors : sum local = 0.00577558, global = -0.00032597, cumulative = -0.00523882
smoothSolver:  Solving for nuTilda, Initial residual = 0.00688119, Final residual = 0.000223837, No Iterations 4
bounding nuTilda, min: -0.00045934 max: 0.0374031 average: 0.00156596
ExecutionTime = 271.29 s  ClockTime = 272 s

Time = 34s

smoothSolver:  Solving for Ux, Initial residual = 0.0166947, Final residual = 0.000726341, No Iterations 4
smoothSolver:  Solving for Uy, Initial residual = 0.0515846, Final residual = 0.00221638, No Iterations 4
smoothSolver:  Solving for Uz, Initial residual = 0.0451935, Final residual = 0.00181928, No Iterations 4
GAMG:  Solving for p, Initial residual = 0.000533627, Final residual = 3.85339e-06, No Iterations 4
time step continuity errors : sum local = 0.00802885, global = -0.00111027, cumulative = -0.00634909
smoothSolver:  Solving for nuTilda, Initial residual = 0.00673472, Final residual = 0.00021801, No Iterations 4
bounding nuTilda, min: -8.38088e-05 max: 0.0374033 average: 0.00160198
ExecutionTime = 277.592 s  ClockTime = 278 s

Time = 35s

smoothSolver:  Solving for Ux, Initial residual = 0.0164932, Final residual = 0.000704039, No Iterations 4
smoothSolver:  Solving for Uy, Initial residual = 0.0523021, Final residual = 0.00224935, No Iterations 4
smoothSolver:  Solving for Uz, Initial residual = 0.0462574, Final residual = 0.00186042, No Iterations 4
GAMG:  Solving for p, Initial residual = 0.000582742, Final residual = 3.83139e-06, No Iterations 4
time step continuity errors : sum local = 0.00730605, global = -0.000856741, cumulative = -0.00720583
smoothSolver:  Solving for nuTilda, Initial residual = 0.00660082, Final residual = 0.000212492, No Iterations 4
bounding nuTilda, min: -0.00045894 max: 0.037404 average: 0.00163784
ExecutionTime = 283.579 s  ClockTime = 284 s

Time = 36s

smoothSolver:  Solving for Ux, Initial residual = 0.0162083, Final residual = 0.000670611, No Iterations 4
smoothSolver:  Solving for Uy, Initial residual = 0.0528774, Final residual = 0.00224758, No Iterations 4
smoothSolver:  Solving for Uz, Initial residual = 0.046787, Final residual = 0.00182877, No Iterations 4
GAMG:  Solving for p, Initial residual = 0.000670212, Final residual = 5.57779e-06, No Iterations 4
time step continuity errors : sum local = 0.00933183, global = -0.00168493, cumulative = -0.00889076
smoothSolver:  Solving for nuTilda, Initial residual = 0.00647873, Final residual = 0.000207321, No Iterations 4
bounding nuTilda, min: -6.82212e-05 max: 0.0374054 average: 0.00167356
ExecutionTime = 290.712 s  ClockTime = 291 s

Time = 37s

smoothSolver:  Solving for Ux, Initial residual = 0.0160915, Final residual = 0.000661351, No Iterations 4
smoothSolver:  Solving for Uy, Initial residual = 0.0533514, Final residual = 0.00224639, No Iterations 4
smoothSolver:  Solving for Uz, Initial residual = 0.0467666, Final residual = 0.00177267, No Iterations 4
GAMG:  Solving for p, Initial residual = 0.000737545, Final residual = 5.17334e-06, No Iterations 4
time step continuity errors : sum local = 0.0079775, global = -0.00170207, cumulative = -0.0105928
smoothSolver:  Solving for nuTilda, Initial residual = 0.00636468, Final residual = 0.000202371, No Iterations 4
bounding nuTilda, min: -0.000459217 max: 0.0374068 average: 0.0017091
ExecutionTime = 297.905 s  ClockTime = 298 s

Time = 38s

smoothSolver:  Solving for Ux, Initial residual = 0.0160855, Final residual = 0.00065665, No Iterations 4
smoothSolver:  Solving for Uy, Initial residual = 0.053563, Final residual = 0.0022041, No Iterations 4
smoothSolver:  Solving for Uz, Initial residual = 0.0468591, Final residual = 0.00177291, No Iterations 4
GAMG:  Solving for p, Initial residual = 0.000706845, Final residual = 5.71814e-06, No Iterations 4
time step continuity errors : sum local = 0.00925431, global = -0.00206314, cumulative = -0.012656
smoothSolver:  Solving for nuTilda, Initial residual = 0.00625976, Final residual = 0.000197795, No Iterations 4
bounding nuTilda, min: -9.53879e-05 max: 0.0374081 average: 0.00174453
ExecutionTime = 304.425 s  ClockTime = 305 s

Time = 39s

smoothSolver:  Solving for Ux, Initial residual = 0.0160261, Final residual = 0.000635638, No Iterations 4
smoothSolver:  Solving for Uy, Initial residual = 0.0540581, Final residual = 0.00215732, No Iterations 4
smoothSolver:  Solving for Uz, Initial residual = 0.0473943, Final residual = 0.00175172, No Iterations 4
GAMG:  Solving for p, Initial residual = 0.000611995, Final residual = 5.04822e-06, No Iterations 4
time step continuity errors : sum local = 0.00946556, global = -0.000914077, cumulative = -0.0135701
smoothSolver:  Solving for nuTilda, Initial residual = 0.00616487, Final residual = 0.000193538, No Iterations 4
bounding nuTilda, min: -0.000458986 max: 0.0374092 average: 0.00177982
ExecutionTime = 311.035 s  ClockTime = 311 s

Time = 40s

smoothSolver:  Solving for Ux, Initial residual = 0.0158115, Final residual = 0.000604495, No Iterations 4
smoothSolver:  Solving for Uy, Initial residual = 0.0546909, Final residual = 0.00211733, No Iterations 4
smoothSolver:  Solving for Uz, Initial residual = 0.0481751, Final residual = 0.00171265, No Iterations 4
GAMG:  Solving for p, Initial residual = 0.000520143, Final residual = 4.74347e-06, No Iterations 3
time step continuity errors : sum local = 0.0105237, global = -0.000599406, cumulative = -0.0141695
smoothSolver:  Solving for nuTilda, Initial residual = 0.00607992, Final residual = 0.000189593, No Iterations 4
bounding nuTilda, min: -8.58795e-05 max: 0.0374103 average: 0.00181498
ExecutionTime = 317.141 s  ClockTime = 317 s

Time = 41s

smoothSolver:  Solving for Ux, Initial residual = 0.0156441, Final residual = 0.000596064, No Iterations 4
smoothSolver:  Solving for Uy, Initial residual = 0.0548258, Final residual = 0.00205638, No Iterations 4
smoothSolver:  Solving for Uz, Initial residual = 0.0486091, Final residual = 0.00171714, No Iterations 4
GAMG:  Solving for p, Initial residual = 0.000501268, Final residual = 4.67464e-06, No Iterations 3
time step continuity errors : sum local = 0.0109382, global = -0.000208972, cumulative = -0.0143784
smoothSolver:  Solving for nuTilda, Initial residual = 0.00600464, Final residual = 0.000186002, No Iterations 4
bounding nuTilda, min: -0.000458848 max: 0.0374114 average: 0.00185002
ExecutionTime = 323.014 s  ClockTime = 323 s

Time = 42s

smoothSolver:  Solving for Ux, Initial residual = 0.0155355, Final residual = 0.000585614, No Iterations 4
smoothSolver:  Solving for Uy, Initial residual = 0.0554697, Final residual = 0.0020947, No Iterations 4
smoothSolver:  Solving for Uz, Initial residual = 0.0487627, Final residual = 0.00173254, No Iterations 4
GAMG:  Solving for p, Initial residual = 0.000486871, Final residual = 4.79237e-06, No Iterations 3
time step continuity errors : sum local = 0.0117058, global = 0.000501089, cumulative = -0.0138773
smoothSolver:  Solving for nuTilda, Initial residual = 0.00593474, Final residual = 0.000182649, No Iterations 4
bounding nuTilda, min: -0.000103339 max: 0.037412 average: 0.00188496
ExecutionTime = 329.131 s  ClockTime = 329 s

Time = 43s

smoothSolver:  Solving for Ux, Initial residual = 0.01556, Final residual = 0.000579062, No Iterations 4
smoothSolver:  Solving for Uy, Initial residual = 0.0559414, Final residual = 0.00209066, No Iterations 4
smoothSolver:  Solving for Uz, Initial residual = 0.0489832, Final residual = 0.00174786, No Iterations 4
GAMG:  Solving for p, Initial residual = 0.00047217, Final residual = 3.80079e-06, No Iterations 4
time step continuity errors : sum local = 0.00958238, global = -0.0018161, cumulative = -0.0156934
smoothSolver:  Solving for nuTilda, Initial residual = 0.00587128, Final residual = 0.000179538, No Iterations 4
bounding nuTilda, min: -0.000458547 max: 0.0374131 average: 0.00191983
ExecutionTime = 335.745 s  ClockTime = 336 s

Time = 44s

smoothSolver:  Solving for Ux, Initial residual = 0.0155987, Final residual = 0.000574712, No Iterations 4
smoothSolver:  Solving for Uy, Initial residual = 0.0567527, Final residual = 0.00213017, No Iterations 4
smoothSolver:  Solving for Uz, Initial residual = 0.0497005, Final residual = 0.0017714, No Iterations 4
GAMG:  Solving for p, Initial residual = 0.000468135, Final residual = 3.38561e-06, No Iterations 4
time step continuity errors : sum local = 0.0084521, global = -0.000440196, cumulative = -0.0161336
smoothSolver:  Solving for nuTilda, Initial residual = 0.00581332, Final residual = 0.000176622, No Iterations 4
bounding nuTilda, min: -0.00012459 max: 0.0374147 average: 0.0019546
ExecutionTime = 342.011 s  ClockTime = 342 s

Time = 45s

smoothSolver:  Solving for Ux, Initial residual = 0.0155578, Final residual = 0.00056661, No Iterations 4
smoothSolver:  Solving for Uy, Initial residual = 0.0575118, Final residual = 0.00213231, No Iterations 4
smoothSolver:  Solving for Uz, Initial residual = 0.050356, Final residual = 0.00177653, No Iterations 4
GAMG:  Solving for p, Initial residual = 0.000475827, Final residual = 4.19798e-06, No Iterations 3
time step continuity errors : sum local = 0.0102129, global = -0.000406628, cumulative = -0.0165403
smoothSolver:  Solving for nuTilda, Initial residual = 0.005756, Final residual = 0.000173729, No Iterations 4
bounding nuTilda, min: -0.000458631 max: 0.0374157 average: 0.00198923
ExecutionTime = 347.859 s  ClockTime = 348 s

Time = 46s

smoothSolver:  Solving for Ux, Initial residual = 0.0155132, Final residual = 0.00056027, No Iterations 4
smoothSolver:  Solving for Uy, Initial residual = 0.0582094, Final residual = 0.00210661, No Iterations 4
smoothSolver:  Solving for Uz, Initial residual = 0.0507956, Final residual = 0.00173944, No Iterations 4
GAMG:  Solving for p, Initial residual = 0.000463862, Final residual = 4.34227e-06, No Iterations 3
time step continuity errors : sum local = 0.0107729, global = -0.00025511, cumulative = -0.0167954
smoothSolver:  Solving for nuTilda, Initial residual = 0.00570731, Final residual = 0.000171137, No Iterations 4
bounding nuTilda, min: -7.68738e-05 max: 0.0374168 average: 0.00202379
ExecutionTime = 354.041 s  ClockTime = 354 s

Time = 47s

smoothSolver:  Solving for Ux, Initial residual = 0.0154874, Final residual = 0.00055078, No Iterations 4
smoothSolver:  Solving for Uy, Initial residual = 0.0588574, Final residual = 0.00207014, No Iterations 4
smoothSolver:  Solving for Uz, Initial residual = 0.0512735, Final residual = 0.00168674, No Iterations 4
GAMG:  Solving for p, Initial residual = 0.000447704, Final residual = 3.76024e-06, No Iterations 4
time step continuity errors : sum local = 0.00966327, global = -0.00169415, cumulative = -0.0184895
smoothSolver:  Solving for nuTilda, Initial residual = 0.00566487, Final residual = 0.000168679, No Iterations 4
bounding nuTilda, min: -0.000459174 max: 0.0374181 average: 0.00205826
ExecutionTime = 360.357 s  ClockTime = 361 s

Time = 48s

smoothSolver:  Solving for Ux, Initial residual = 0.0154975, Final residual = 0.000539496, No Iterations 4
smoothSolver:  Solving for Uy, Initial residual = 0.0596374, Final residual = 0.00205075, No Iterations 4
smoothSolver:  Solving for Uz, Initial residual = 0.0520829, Final residual = 0.00165263, No Iterations 4
GAMG:  Solving for p, Initial residual = 0.000425016, Final residual = 3.07162e-06, No Iterations 4
time step continuity errors : sum local = 0.00833626, global = -0.000950751, cumulative = -0.0194403
smoothSolver:  Solving for nuTilda, Initial residual = 0.00562926, Final residual = 0.000166434, No Iterations 4
bounding nuTilda, min: -6.3904e-05 max: 0.0374197 average: 0.00209267
ExecutionTime = 367.022 s  ClockTime = 367 s

Time = 49s

smoothSolver:  Solving for Ux, Initial residual = 0.0155694, Final residual = 0.000523652, No Iterations 4
smoothSolver:  Solving for Uy, Initial residual = 0.0599316, Final residual = 0.00194486, No Iterations 4
smoothSolver:  Solving for Uz, Initial residual = 0.052891, Final residual = 0.00163053, No Iterations 4
GAMG:  Solving for p, Initial residual = 0.000399977, Final residual = 2.88175e-06, No Iterations 4
time step continuity errors : sum local = 0.00842383, global = -0.000473557, cumulative = -0.0199138
smoothSolver:  Solving for nuTilda, Initial residual = 0.00559971, Final residual = 0.00016429, No Iterations 4
bounding nuTilda, min: -0.000459097 max: 0.0374215 average: 0.00212703
ExecutionTime = 373.267 s  ClockTime = 374 s

Time = 50s

smoothSolver:  Solving for Ux, Initial residual = 0.0156718, Final residual = 0.000517832, No Iterations 4
smoothSolver:  Solving for Uy, Initial residual = 0.0609678, Final residual = 0.00196969, No Iterations 4
smoothSolver:  Solving for Uz, Initial residual = 0.0536841, Final residual = 0.00161921, No Iterations 4
GAMG:  Solving for p, Initial residual = 0.000385865, Final residual = 3.61769e-06, No Iterations 3
time step continuity errors : sum local = 0.0112148, global = 0.000192198, cumulative = -0.0197216
smoothSolver:  Solving for nuTilda, Initial residual = 0.00558093, Final residual = 0.00016237, No Iterations 4
bounding nuTilda, min: -8.8313e-05 max: 0.0374229 average: 0.00216136
ExecutionTime = 379.395 s  ClockTime = 380 s

Time = 51s

smoothSolver:  Solving for Ux, Initial residual = 0.0157911, Final residual = 0.000518015, No Iterations 4
smoothSolver:  Solving for Uy, Initial residual = 0.0627217, Final residual = 0.00212584, No Iterations 4
smoothSolver:  Solving for Uz, Initial residual = 0.0544924, Final residual = 0.00160755, No Iterations 4
GAMG:  Solving for p, Initial residual = 0.000379164, Final residual = 3.76852e-06, No Iterations 3
time step continuity errors : sum local = 0.0122979, global = 0.000367534, cumulative = -0.0193541
smoothSolver:  Solving for nuTilda, Initial residual = 0.0055637, Final residual = 0.000160457, No Iterations 4
bounding nuTilda, min: -0.00045738 max: 0.0374248 average: 0.00219561
ExecutionTime = 385.42 s  ClockTime = 386 s

Time = 52s

smoothSolver:  Solving for Ux, Initial residual = 0.0158335, Final residual = 0.000503312, No Iterations 4
smoothSolver:  Solving for Uy, Initial residual = 0.0633593, Final residual = 0.00203093, No Iterations 4
smoothSolver:  Solving for Uz, Initial residual = 0.0554527, Final residual = 0.00159535, No Iterations 4
GAMG:  Solving for p, Initial residual = 0.00038191, Final residual = 2.83104e-06, No Iterations 4
time step continuity errors : sum local = 0.0094926, global = -0.00148082, cumulative = -0.0208349
smoothSolver:  Solving for nuTilda, Initial residual = 0.00555397, Final residual = 0.000158734, No Iterations 4
bounding nuTilda, min: -0.000152317 max: 0.0374266 average: 0.00222981
ExecutionTime = 391.964 s  ClockTime = 392 s

Time = 53s

smoothSolver:  Solving for Ux, Initial residual = 0.0159073, Final residual = 0.000492585, No Iterations 4
smoothSolver:  Solving for Uy, Initial residual = 0.0643861, Final residual = 0.00200666, No Iterations 4
smoothSolver:  Solving for Uz, Initial residual = 0.0566574, Final residual = 0.0015956, No Iterations 4
GAMG:  Solving for p, Initial residual = 0.000384655, Final residual = 2.72021e-06, No Iterations 4
time step continuity errors : sum local = 0.00937933, global = -0.00183997, cumulative = -0.0226749
smoothSolver:  Solving for nuTilda, Initial residual = 0.00554525, Final residual = 0.000157002, No Iterations 4
bounding nuTilda, min: -0.000456663 max: 0.0374276 average: 0.00226393
ExecutionTime = 398.402 s  ClockTime = 399 s

Time = 54s

smoothSolver:  Solving for Ux, Initial residual = 0.0160086, Final residual = 0.000482515, No Iterations 4
smoothSolver:  Solving for Uy, Initial residual = 0.0654994, Final residual = 0.00199984, No Iterations 4
smoothSolver:  Solving for Uz, Initial residual = 0.0578138, Final residual = 0.00160047, No Iterations 4
GAMG:  Solving for p, Initial residual = 0.000384035, Final residual = 2.95342e-06, No Iterations 4
time step continuity errors : sum local = 0.0106309, global = -0.00181788, cumulative = -0.0244928
smoothSolver:  Solving for nuTilda, Initial residual = 0.00554004, Final residual = 0.000155346, No Iterations 4
bounding nuTilda, min: -0.00016094 max: 0.0374281 average: 0.00229797
ExecutionTime = 404.524 s  ClockTime = 405 s

Time = 55s

smoothSolver:  Solving for Ux, Initial residual = 0.016076, Final residual = 0.000470061, No Iterations 4
smoothSolver:  Solving for Uy, Initial residual = 0.0667305, Final residual = 0.00201341, No Iterations 4
smoothSolver:  Solving for Uz, Initial residual = 0.0589021, Final residual = 0.00160594, No Iterations 4
GAMG:  Solving for p, Initial residual = 0.000377921, Final residual = 3.63924e-06, No Iterations 3
time step continuity errors : sum local = 0.0139089, global = 0.00138924, cumulative = -0.0231035
smoothSolver:  Solving for nuTilda, Initial residual = 0.00553586, Final residual = 0.000153619, No Iterations 4
bounding nuTilda, min: -0.000456158 max: 0.0374284 average: 0.00233191
ExecutionTime = 410.626 s  ClockTime = 411 s

Time = 56s

smoothSolver:  Solving for Ux, Initial residual = 0.0161277, Final residual = 0.000465283, No Iterations 4
smoothSolver:  Solving for Uy, Initial residual = 0.0682182, Final residual = 0.00205448, No Iterations 4
smoothSolver:  Solving for Uz, Initial residual = 0.0599444, Final residual = 0.00160114, No Iterations 4
GAMG:  Solving for p, Initial residual = 0.000384431, Final residual = 3.78776e-06, No Iterations 3
time step continuity errors : sum local = 0.0149907, global = 0.00189466, cumulative = -0.0212089
smoothSolver:  Solving for nuTilda, Initial residual = 0.00553603, Final residual = 0.000152041, No Iterations 4
bounding nuTilda, min: -0.000117084 max: 0.0374289 average: 0.00236579
ExecutionTime = 416.736 s  ClockTime = 417 s

Time = 57s

smoothSolver:  Solving for Ux, Initial residual = 0.016098, Final residual = 0.000447835, No Iterations 4
smoothSolver:  Solving for Uy, Initial residual = 0.0689905, Final residual = 0.00194349, No Iterations 4
smoothSolver:  Solving for Uz, Initial residual = 0.061103, Final residual = 0.00158249, No Iterations 4
GAMG:  Solving for p, Initial residual = 0.000388808, Final residual = 2.81527e-06, No Iterations 4
time step continuity errors : sum local = 0.0115913, global = -0.00386479, cumulative = -0.0250736
smoothSolver:  Solving for nuTilda, Initial residual = 0.00553341, Final residual = 0.000150377, No Iterations 4
bounding nuTilda, min: -0.000456536 max: 0.0374305 average: 0.00239956
ExecutionTime = 423.34 s  ClockTime = 424 s

Time = 58s

smoothSolver:  Solving for Ux, Initial residual = 0.0161285, Final residual = 0.000431298, No Iterations 4
smoothSolver:  Solving for Uy, Initial residual = 0.0700555, Final residual = 0.00190654, No Iterations 4
smoothSolver:  Solving for Uz, Initial residual = 0.0623389, Final residual = 0.00157025, No Iterations 4
GAMG:  Solving for p, Initial residual = 0.000393417, Final residual = 3.36538e-06, No Iterations 3
time step continuity errors : sum local = 0.0141554, global = 0.00200625, cumulative = -0.0230674
smoothSolver:  Solving for nuTilda, Initial residual = 0.00553862, Final residual = 0.000148865, No Iterations 4
bounding nuTilda, min: -0.000108134 max: 0.037432 average: 0.00243326
ExecutionTime = 429.469 s  ClockTime = 430 s

Time = 59s

smoothSolver:  Solving for Ux, Initial residual = 0.0162102, Final residual = 0.00040993, No Iterations 4
smoothSolver:  Solving for Uy, Initial residual = 0.0713909, Final residual = 0.00192116, No Iterations 4
smoothSolver:  Solving for Uz, Initial residual = 0.0635138, Final residual = 0.00155239, No Iterations 4
GAMG:  Solving for p, Initial residual = 0.000380513, Final residual = 3.09687e-06, No Iterations 3
time step continuity errors : sum local = 0.0139201, global = 0.00248314, cumulative = -0.0205843
smoothSolver:  Solving for nuTilda, Initial residual = 0.00554198, Final residual = 0.000147364, No Iterations 4
bounding nuTilda, min: -0.000455736 max: 0.0374334 average: 0.00246687
ExecutionTime = 435.657 s  ClockTime = 436 s

Time = 60s

smoothSolver:  Solving for Ux, Initial residual = 0.0163162, Final residual = 0.00039578, No Iterations 4
smoothSolver:  Solving for Uy, Initial residual = 0.0722277, Final residual = 0.00188221, No Iterations 4
smoothSolver:  Solving for Uz, Initial residual = 0.064503, Final residual = 0.00153935, No Iterations 4
GAMG:  Solving for p, Initial residual = 0.000372228, Final residual = 3.12697e-06, No Iterations 3
time step continuity errors : sum local = 0.0145638, global = 0.00292128, cumulative = -0.017663
smoothSolver:  Solving for nuTilda, Initial residual = 0.00554451, Final residual = 0.000145905, No Iterations 4
bounding nuTilda, min: -0.000143533 max: 0.0374348 average: 0.00250039
ExecutionTime = 441.575 s  ClockTime = 442 s

Time = 61s

smoothSolver:  Solving for Ux, Initial residual = 0.0163664, Final residual = 0.000377361, No Iterations 4
smoothSolver:  Solving for Uy, Initial residual = 0.0726475, Final residual = 0.00180069, No Iterations 4
smoothSolver:  Solving for Uz, Initial residual = 0.0651991, Final residual = 0.0015276, No Iterations 4
GAMG:  Solving for p, Initial residual = 0.000365833, Final residual = 3.1606e-06, No Iterations 3
time step continuity errors : sum local = 0.0151269, global = 0.00354447, cumulative = -0.0141185
smoothSolver:  Solving for nuTilda, Initial residual = 0.00554628, Final residual = 0.000144385, No Iterations 4
bounding nuTilda, min: -0.000455469 max: 0.0374361 average: 0.00253385
ExecutionTime = 447.348 s  ClockTime = 448 s

Time = 62s

smoothSolver:  Solving for Ux, Initial residual = 0.0163703, Final residual = 0.00036685, No Iterations 4
smoothSolver:  Solving for Uy, Initial residual = 0.0732472, Final residual = 0.00181875, No Iterations 4
smoothSolver:  Solving for Uz, Initial residual = 0.0656851, Final residual = 0.00152608, No Iterations 4
GAMG:  Solving for p, Initial residual = 0.000357955, Final residual = 3.08848e-06, No Iterations 3
time step continuity errors : sum local = 0.0151305, global = 0.00405333, cumulative = -0.0100652
smoothSolver:  Solving for nuTilda, Initial residual = 0.00555088, Final residual = 0.000142881, No Iterations 4
bounding nuTilda, min: -0.000195457 max: 0.0374371 average: 0.00256729
ExecutionTime = 453.474 s  ClockTime = 454 s

Time = 63s

smoothSolver:  Solving for Ux, Initial residual = 0.0163744, Final residual = 0.000361356, No Iterations 4
smoothSolver:  Solving for Uy, Initial residual = 0.0734276, Final residual = 0.00180856, No Iterations 4
smoothSolver:  Solving for Uz, Initial residual = 0.065603, Final residual = 0.00151448, No Iterations 4
GAMG:  Solving for p, Initial residual = 0.000349365, Final residual = 2.90771e-06, No Iterations 3
time step continuity errors : sum local = 0.0145288, global = 0.00408561, cumulative = -0.00597957
smoothSolver:  Solving for nuTilda, Initial residual = 0.00555424, Final residual = 0.000141298, No Iterations 4
bounding nuTilda, min: -0.000455851 max: 0.0374381 average: 0.0026007
ExecutionTime = 459.809 s  ClockTime = 460 s

Time = 64s

smoothSolver:  Solving for Ux, Initial residual = 0.0163478, Final residual = 0.000355312, No Iterations 4
smoothSolver:  Solving for Uy, Initial residual = 0.0729781, Final residual = 0.00175552, No Iterations 4
smoothSolver:  Solving for Uz, Initial residual = 0.0651416, Final residual = 0.00148693, No Iterations 4
GAMG:  Solving for p, Initial residual = 0.000339641, Final residual = 2.64883e-06, No Iterations 3
time step continuity errors : sum local = 0.0134691, global = 0.00371021, cumulative = -0.00226935
smoothSolver:  Solving for nuTilda, Initial residual = 0.00555762, Final residual = 0.000139688, No Iterations 4
bounding nuTilda, min: -0.000164488 max: 0.03744 average: 0.00263409
ExecutionTime = 465.906 s  ClockTime = 466 s

Time = 65s

smoothSolver:  Solving for Ux, Initial residual = 0.0162808, Final residual = 0.000350126, No Iterations 4
smoothSolver:  Solving for Uy, Initial residual = 0.0723553, Final residual = 0.00172587, No Iterations 4
smoothSolver:  Solving for Uz, Initial residual = 0.0644273, Final residual = 0.00144353, No Iterations 4
GAMG:  Solving for p, Initial residual = 0.000330183, Final residual = 2.47936e-06, No Iterations 3
time step continuity errors : sum local = 0.0128291, global = 0.00342776, cumulative = 0.00115841
smoothSolver:  Solving for nuTilda, Initial residual = 0.00556047, Final residual = 0.000138078, No Iterations 4
bounding nuTilda, min: -0.00046448 max: 0.0374417 average: 0.00266745
ExecutionTime = 471.922 s  ClockTime = 472 s

Time = 66s

smoothSolver:  Solving for Ux, Initial residual = 0.016156, Final residual = 0.000346719, No Iterations 4
smoothSolver:  Solving for Uy, Initial residual = 0.0713901, Final residual = 0.00166884, No Iterations 4
smoothSolver:  Solving for Uz, Initial residual = 0.0635976, Final residual = 0.00139204, No Iterations 4
GAMG:  Solving for p, Initial residual = 0.000322938, Final residual = 2.56356e-06, No Iterations 3
time step continuity errors : sum local = 0.0134888, global = 0.00317546, cumulative = 0.00433386
smoothSolver:  Solving for nuTilda, Initial residual = 0.00555923, Final residual = 0.000136449, No Iterations 4
bounding nuTilda, min: -0.000113259 max: 0.0374431 average: 0.00270078
ExecutionTime = 477.935 s  ClockTime = 478 s

Time = 67s

smoothSolver:  Solving for Ux, Initial residual = 0.0159431, Final residual = 0.000350713, No Iterations 4
smoothSolver:  Solving for Uy, Initial residual = 0.0705054, Final residual = 0.00159533, No Iterations 4
smoothSolver:  Solving for Uz, Initial residual = 0.0628163, Final residual = 0.00134133, No Iterations 4
GAMG:  Solving for p, Initial residual = 0.0003189, Final residual = 2.85723e-06, No Iterations 3
time step continuity errors : sum local = 0.0150531, global = 0.00305988, cumulative = 0.00739374
smoothSolver:  Solving for nuTilda, Initial residual = 0.00555884, Final residual = 0.000134805, No Iterations 4
bounding nuTilda, min: -0.000466988 max: 0.0374442 average: 0.00273407
ExecutionTime = 483.801 s  ClockTime = 484 s

Time = 68s

smoothSolver:  Solving for Ux, Initial residual = 0.0157272, Final residual = 0.000359182, No Iterations 4
smoothSolver:  Solving for Uy, Initial residual = 0.069899, Final residual = 0.00154136, No Iterations 4
smoothSolver:  Solving for Uz, Initial residual = 0.0620334, Final residual = 0.00129686, No Iterations 4
GAMG:  Solving for p, Initial residual = 0.000319051, Final residual = 2.41765e-06, No Iterations 3
time step continuity errors : sum local = 0.0125515, global = 0.00284451, cumulative = 0.0102383
smoothSolver:  Solving for nuTilda, Initial residual = 0.00555508, Final residual = 0.000133263, No Iterations 4
bounding nuTilda, min: -9.23618e-05 max: 0.0374452 average: 0.00276736
ExecutionTime = 490.057 s  ClockTime = 490 s

Time = 69s

smoothSolver:  Solving for Ux, Initial residual = 0.0154253, Final residual = 0.000353494, No Iterations 4
smoothSolver:  Solving for Uy, Initial residual = 0.0692054, Final residual = 0.0014548, No Iterations 4
smoothSolver:  Solving for Uz, Initial residual = 0.0611224, Final residual = 0.00125092, No Iterations 4
GAMG:  Solving for p, Initial residual = 0.000304902, Final residual = 1.94431e-06, No Iterations 3
time step continuity errors : sum local = 0.0103983, global = 0.00182527, cumulative = 0.0120635
smoothSolver:  Solving for nuTilda, Initial residual = 0.00554629, Final residual = 0.000131741, No Iterations 4
bounding nuTilda, min: -0.000463984 max: 0.0374462 average: 0.00280067
ExecutionTime = 495.9 s  ClockTime = 496 s

Time = 70s

smoothSolver:  Solving for Ux, Initial residual = 0.0151001, Final residual = 0.000348435, No Iterations 4
smoothSolver:  Solving for Uy, Initial residual = 0.0686007, Final residual = 0.00141096, No Iterations 4
smoothSolver:  Solving for Uz, Initial residual = 0.0601114, Final residual = 0.0012107, No Iterations 4
GAMG:  Solving for p, Initial residual = 0.000291106, Final residual = 1.99001e-06, No Iterations 3
time step continuity errors : sum local = 0.010919, global = 0.00174901, cumulative = 0.0138125
smoothSolver:  Solving for nuTilda, Initial residual = 0.00553171, Final residual = 0.000130294, No Iterations 4
bounding nuTilda, min: -0.000119244 max: 0.0374481 average: 0.00283403
ExecutionTime = 502.135 s  ClockTime = 502 s

Time = 71s

smoothSolver:  Solving for Ux, Initial residual = 0.014722, Final residual = 0.000344118, No Iterations 4
smoothSolver:  Solving for Uy, Initial residual = 0.0680498, Final residual = 0.00140158, No Iterations 4
smoothSolver:  Solving for Uz, Initial residual = 0.0591207, Final residual = 0.00118677, No Iterations 4
GAMG:  Solving for p, Initial residual = 0.000274779, Final residual = 1.99957e-06, No Iterations 3
time step continuity errors : sum local = 0.0112817, global = 0.00150665, cumulative = 0.0153192
smoothSolver:  Solving for nuTilda, Initial residual = 0.00551222, Final residual = 0.000128926, No Iterations 4
bounding nuTilda, min: -0.000461671 max: 0.0374497 average: 0.00286743
ExecutionTime = 508.373 s  ClockTime = 509 s

Time = 72s

smoothSolver:  Solving for Ux, Initial residual = 0.0143237, Final residual = 0.000342515, No Iterations 4
smoothSolver:  Solving for Uy, Initial residual = 0.0674099, Final residual = 0.0014077, No Iterations 4
smoothSolver:  Solving for Uz, Initial residual = 0.0579791, Final residual = 0.00117444, No Iterations 4
GAMG:  Solving for p, Initial residual = 0.000258385, Final residual = 1.86459e-06, No Iterations 3
time step continuity errors : sum local = 0.010846, global = 0.001169, cumulative = 0.0164882
smoothSolver:  Solving for nuTilda, Initial residual = 0.00549072, Final residual = 0.000127637, No Iterations 4
bounding nuTilda, min: -8.70573e-05 max: 0.0374511 average: 0.00290091
ExecutionTime = 514.814 s  ClockTime = 515 s

Time = 73s

smoothSolver:  Solving for Ux, Initial residual = 0.013936, Final residual = 0.000339368, No Iterations 4
smoothSolver:  Solving for Uy, Initial residual = 0.0668101, Final residual = 0.00143453, No Iterations 4
smoothSolver:  Solving for Uz, Initial residual = 0.0568037, Final residual = 0.00117204, No Iterations 4
GAMG:  Solving for p, Initial residual = 0.000243082, Final residual = 1.8942e-06, No Iterations 3
time step continuity errors : sum local = 0.0114069, global = 0.00101173, cumulative = 0.0174999
smoothSolver:  Solving for nuTilda, Initial residual = 0.00547263, Final residual = 0.000126447, No Iterations 4
bounding nuTilda, min: -0.000461137 max: 0.0374523 average: 0.00293447
ExecutionTime = 521.409 s  ClockTime = 522 s

Time = 74s

smoothSolver:  Solving for Ux, Initial residual = 0.0135778, Final residual = 0.000333979, No Iterations 4
smoothSolver:  Solving for Uy, Initial residual = 0.0663534, Final residual = 0.00149053, No Iterations 4
smoothSolver:  Solving for Uz, Initial residual = 0.0558013, Final residual = 0.00118233, No Iterations 4
GAMG:  Solving for p, Initial residual = 0.000229227, Final residual = 2.1651e-06, No Iterations 3
time step continuity errors : sum local = 0.0136159, global = 0.000852749, cumulative = 0.0183527
smoothSolver:  Solving for nuTilda, Initial residual = 0.00545787, Final residual = 0.000125302, No Iterations 4
bounding nuTilda, min: -0.0001107 max: 0.0374533 average: 0.00296816
ExecutionTime = 527.325 s  ClockTime = 528 s

Time = 75s

smoothSolver:  Solving for Ux, Initial residual = 0.013246, Final residual = 0.000320763, No Iterations 4
smoothSolver:  Solving for Uy, Initial residual = 0.0659012, Final residual = 0.00156356, No Iterations 4
smoothSolver:  Solving for Uz, Initial residual = 0.0548703, Final residual = 0.00121068, No Iterations 4
GAMG:  Solving for p, Initial residual = 0.000216891, Final residual = 1.98992e-06, No Iterations 3
time step continuity errors : sum local = 0.0130367, global = 0.00128887, cumulative = 0.0196415
smoothSolver:  Solving for nuTilda, Initial residual = 0.00544852, Final residual = 0.000124163, No Iterations 4
bounding nuTilda, min: -0.000461234 max: 0.0374544 average: 0.00300199
ExecutionTime = 533.442 s  ClockTime = 534 s

Time = 76s

smoothSolver:  Solving for Ux, Initial residual = 0.0129449, Final residual = 0.000307841, No Iterations 4
smoothSolver:  Solving for Uy, Initial residual = 0.0653201, Final residual = 0.00161659, No Iterations 4
smoothSolver:  Solving for Uz, Initial residual = 0.0538936, Final residual = 0.00123594, No Iterations 4
GAMG:  Solving for p, Initial residual = 0.000206191, Final residual = 1.60434e-06, No Iterations 3
time step continuity errors : sum local = 0.0108911, global = 0.00195542, cumulative = 0.0215969
smoothSolver:  Solving for nuTilda, Initial residual = 0.00544418, Final residual = 0.000123103, No Iterations 4
bounding nuTilda, min: -0.000146145 max: 0.0374562 average: 0.00303599
ExecutionTime = 539.408 s  ClockTime = 540 s

Time = 77s

smoothSolver:  Solving for Ux, Initial residual = 0.0126469, Final residual = 0.000296969, No Iterations 4
smoothSolver:  Solving for Uy, Initial residual = 0.0647139, Final residual = 0.00164142, No Iterations 4
smoothSolver:  Solving for Uz, Initial residual = 0.0530113, Final residual = 0.00125163, No Iterations 4
GAMG:  Solving for p, Initial residual = 0.000194797, Final residual = 1.51839e-06, No Iterations 3
time step continuity errors : sum local = 0.0106573, global = 0.00216464, cumulative = 0.0237616
smoothSolver:  Solving for nuTilda, Initial residual = 0.00544669, Final residual = 0.000122088, No Iterations 4
bounding nuTilda, min: -0.000460948 max: 0.0374577 average: 0.00307017
ExecutionTime = 547.23 s  ClockTime = 547 s

Time = 78s

smoothSolver:  Solving for Ux, Initial residual = 0.0123559, Final residual = 0.000286168, No Iterations 4
smoothSolver:  Solving for Uy, Initial residual = 0.0641694, Final residual = 0.00164044, No Iterations 4
smoothSolver:  Solving for Uz, Initial residual = 0.0522219, Final residual = 0.00125664, No Iterations 4
GAMG:  Solving for p, Initial residual = 0.00018461, Final residual = 1.53172e-06, No Iterations 3
time step continuity errors : sum local = 0.0111033, global = 0.00271229, cumulative = 0.0264739
smoothSolver:  Solving for nuTilda, Initial residual = 0.00545136, Final residual = 0.000121116, No Iterations 4
bounding nuTilda, min: -0.000105271 max: 0.0374591 average: 0.00310452
ExecutionTime = 554.159 s  ClockTime = 554 s

Time = 79s

smoothSolver:  Solving for Ux, Initial residual = 0.012089, Final residual = 0.000275883, No Iterations 4
smoothSolver:  Solving for Uy, Initial residual = 0.0636879, Final residual = 0.00162162, No Iterations 4
smoothSolver:  Solving for Uz, Initial residual = 0.0516038, Final residual = 0.00124333, No Iterations 4
GAMG:  Solving for p, Initial residual = 0.000175688, Final residual = 1.47343e-06, No Iterations 3
time step continuity errors : sum local = 0.0110347, global = 0.0029953, cumulative = 0.0294692
smoothSolver:  Solving for nuTilda, Initial residual = 0.00545439, Final residual = 0.000120164, No Iterations 4
bounding nuTilda, min: -0.000460451 max: 0.0374603 average: 0.00313903
ExecutionTime = 560.723 s  ClockTime = 561 s

Time = 80s

smoothSolver:  Solving for Ux, Initial residual = 0.0118559, Final residual = 0.000267762, No Iterations 4
smoothSolver:  Solving for Uy, Initial residual = 0.0632325, Final residual = 0.00157379, No Iterations 4
smoothSolver:  Solving for Uz, Initial residual = 0.0510747, Final residual = 0.00121204, No Iterations 4
GAMG:  Solving for p, Initial residual = 0.000167031, Final residual = 1.29804e-06, No Iterations 3
time step continuity errors : sum local = 0.010029, global = 0.00258421, cumulative = 0.0320534
smoothSolver:  Solving for nuTilda, Initial residual = 0.00545521, Final residual = 0.000119245, No Iterations 4
bounding nuTilda, min: -0.000104399 max: 0.0374613 average: 0.00317369
ExecutionTime = 567.352 s  ClockTime = 568 s

Time = 81s

smoothSolver:  Solving for Ux, Initial residual = 0.0116378, Final residual = 0.000261072, No Iterations 4
smoothSolver:  Solving for Uy, Initial residual = 0.0626867, Final residual = 0.00149558, No Iterations 4
smoothSolver:  Solving for Uz, Initial residual = 0.050511, Final residual = 0.00116976, No Iterations 4
GAMG:  Solving for p, Initial residual = 0.000158475, Final residual = 1.15369e-06, No Iterations 3
time step continuity errors : sum local = 0.00915756, global = 0.00196308, cumulative = 0.0340165
smoothSolver:  Solving for nuTilda, Initial residual = 0.00545003, Final residual = 0.000118337, No Iterations 4
bounding nuTilda, min: -0.00046006 max: 0.0374626 average: 0.00320854
ExecutionTime = 574.102 s  ClockTime = 574 s

Time = 82s

smoothSolver:  Solving for Ux, Initial residual = 0.0114243, Final residual = 0.00113087, No Iterations 2
smoothSolver:  Solving for Uy, Initial residual = 0.0620444, Final residual = 0.00140693, No Iterations 4
smoothSolver:  Solving for Uz, Initial residual = 0.0498763, Final residual = 0.00113244, No Iterations 4
GAMG:  Solving for p, Initial residual = 0.000150478, Final residual = 1.08371e-06, No Iterations 3
time step continuity errors : sum local = 0.00881813, global = 0.00174616, cumulative = 0.0357626
smoothSolver:  Solving for nuTilda, Initial residual = 0.00543987, Final residual = 0.00011742, No Iterations 4
bounding nuTilda, min: -0.000118716 max: 0.0374643 average: 0.00324362
ExecutionTime = 580.998 s  ClockTime = 581 s

Time = 83s

smoothSolver:  Solving for Ux, Initial residual = 0.0114022, Final residual = 0.00113733, No Iterations 2
smoothSolver:  Solving for Uy, Initial residual = 0.0608936, Final residual = 0.00129714, No Iterations 4
smoothSolver:  Solving for Uz, Initial residual = 0.0487271, Final residual = 0.00107008, No Iterations 4
GAMG:  Solving for p, Initial residual = 0.00014508, Final residual = 1.04786e-06, No Iterations 3
time step continuity errors : sum local = 0.00870019, global = 0.00188052, cumulative = 0.0376431
smoothSolver:  Solving for nuTilda, Initial residual = 0.00543143, Final residual = 0.000116501, No Iterations 4
bounding nuTilda, min: -0.000459855 max: 0.0374659 average: 0.0032789
ExecutionTime = 586.998 s  ClockTime = 587 s

Time = 84s

smoothSolver:  Solving for Ux, Initial residual = 0.0113635, Final residual = 0.00113565, No Iterations 2
smoothSolver:  Solving for Uy, Initial residual = 0.0598526, Final residual = 0.00586594, No Iterations 2
smoothSolver:  Solving for Uz, Initial residual = 0.0476831, Final residual = 0.0047549, No Iterations 2
GAMG:  Solving for p, Initial residual = 0.000141524, Final residual = 1.02608e-06, No Iterations 3
time step continuity errors : sum local = 0.00867853, global = 0.00248431, cumulative = 0.0401274
smoothSolver:  Solving for nuTilda, Initial residual = 0.00542574, Final residual = 0.000115611, No Iterations 4
bounding nuTilda, min: -0.000135724 max: 0.0374673 average: 0.00331441
ExecutionTime = 592.99 s  ClockTime = 593 s

Time = 85s

smoothSolver:  Solving for Ux, Initial residual = 0.0112025, Final residual = 0.00110575, No Iterations 2
smoothSolver:  Solving for Uy, Initial residual = 0.0600817, Final residual = 0.00592932, No Iterations 2
smoothSolver:  Solving for Uz, Initial residual = 0.0477148, Final residual = 0.00103954, No Iterations 4
GAMG:  Solving for p, Initial residual = 0.000137118, Final residual = 1.00927e-06, No Iterations 3
time step continuity errors : sum local = 0.00867965, global = 0.00289876, cumulative = 0.0430262
smoothSolver:  Solving for nuTilda, Initial residual = 0.00542793, Final residual = 0.000114734, No Iterations 4
bounding nuTilda, min: -0.000460009 max: 0.0374685 average: 0.00335012
ExecutionTime = 598.726 s  ClockTime = 599 s

Time = 86s

smoothSolver:  Solving for Ux, Initial residual = 0.0110614, Final residual = 0.0010738, No Iterations 2
smoothSolver:  Solving for Uy, Initial residual = 0.0607565, Final residual = 0.00606168, No Iterations 2
smoothSolver:  Solving for Uz, Initial residual = 0.0470744, Final residual = 0.00463787, No Iterations 2
GAMG:  Solving for p, Initial residual = 0.000130101, Final residual = 1.05687e-06, No Iterations 3
time step continuity errors : sum local = 0.00921135, global = 0.00318362, cumulative = 0.0462098
smoothSolver:  Solving for nuTilda, Initial residual = 0.00543436, Final residual = 0.000113907, No Iterations 4
bounding nuTilda, min: -0.000128054 max: 0.0374695 average: 0.00338604
ExecutionTime = 604.365 s  ClockTime = 605 s

Time = 87s

smoothSolver:  Solving for Ux, Initial residual = 0.0109296, Final residual = 0.00104468, No Iterations 2
smoothSolver:  Solving for Uy, Initial residual = 0.0609035, Final residual = 0.0013427, No Iterations 4
smoothSolver:  Solving for Uz, Initial residual = 0.0471671, Final residual = 0.00467924, No Iterations 2
GAMG:  Solving for p, Initial residual = 0.000124747, Final residual = 1.02823e-06, No Iterations 3
time step continuity errors : sum local = 0.00900352, global = 0.00253011, cumulative = 0.0487399
smoothSolver:  Solving for nuTilda, Initial residual = 0.00544677, Final residual = 0.000113113, No Iterations 4
bounding nuTilda, min: -0.000459654 max: 0.037471 average: 0.00342216
ExecutionTime = 610.467 s  ClockTime = 611 s

Time = 88s

smoothSolver:  Solving for Ux, Initial residual = 0.0108606, Final residual = 0.00102895, No Iterations 2
smoothSolver:  Solving for Uy, Initial residual = 0.0592516, Final residual = 0.00572093, No Iterations 2
smoothSolver:  Solving for Uz, Initial residual = 0.0472592, Final residual = 0.00107074, No Iterations 4
GAMG:  Solving for p, Initial residual = 0.000120739, Final residual = 8.23998e-07, No Iterations 3
time step continuity errors : sum local = 0.00722302, global = 0.00171063, cumulative = 0.0504506
smoothSolver:  Solving for nuTilda, Initial residual = 0.0054596, Final residual = 0.000112331, No Iterations 4
bounding nuTilda, min: -0.000134294 max: 0.0374727 average: 0.00345849
ExecutionTime = 616.343 s  ClockTime = 617 s

Time = 89s

smoothSolver:  Solving for Ux, Initial residual = 0.0107751, Final residual = 0.00101313, No Iterations 2
smoothSolver:  Solving for Uy, Initial residual = 0.0587702, Final residual = 0.00565642, No Iterations 2
smoothSolver:  Solving for Uz, Initial residual = 0.0458921, Final residual = 0.00444964, No Iterations 2
GAMG:  Solving for p, Initial residual = 0.000116824, Final residual = 8.27202e-07, No Iterations 3
time step continuity errors : sum local = 0.00733496, global = 0.00147891, cumulative = 0.0519295
smoothSolver:  Solving for nuTilda, Initial residual = 0.00547412, Final residual = 0.000111589, No Iterations 4
bounding nuTilda, min: -0.0004589 max: 0.0374742 average: 0.00349502
ExecutionTime = 621.908 s  ClockTime = 622 s

Time = 90s

smoothSolver:  Solving for Ux, Initial residual = 0.0106117, Final residual = 0.000985935, No Iterations 2
smoothSolver:  Solving for Uy, Initial residual = 0.0586843, Final residual = 0.00567721, No Iterations 2
smoothSolver:  Solving for Uz, Initial residual = 0.0454782, Final residual = 0.00437771, No Iterations 2
GAMG:  Solving for p, Initial residual = 0.00010989, Final residual = 7.79322e-07, No Iterations 3
time step continuity errors : sum local = 0.00700105, global = 0.00117807, cumulative = 0.0531075
smoothSolver:  Solving for nuTilda, Initial residual = 0.00548856, Final residual = 0.000110882, No Iterations 4
bounding nuTilda, min: -0.000170387 max: 0.0374755 average: 0.00353175
ExecutionTime = 627.899 s  ClockTime = 628 s

Time = 91s

smoothSolver:  Solving for Ux, Initial residual = 0.0104049, Final residual = 0.000951928, No Iterations 2
smoothSolver:  Solving for Uy, Initial residual = 0.0587289, Final residual = 0.00572805, No Iterations 2
smoothSolver:  Solving for Uz, Initial residual = 0.0453889, Final residual = 0.00439025, No Iterations 2
GAMG:  Solving for p, Initial residual = 0.000103597, Final residual = 7.28321e-07, No Iterations 3
time step continuity errors : sum local = 0.00664223, global = 0.00108617, cumulative = 0.0541937
smoothSolver:  Solving for nuTilda, Initial residual = 0.00550078, Final residual = 0.000110194, No Iterations 4
bounding nuTilda, min: -0.00045908 max: 0.0374766 average: 0.00356865
ExecutionTime = 633.757 s  ClockTime = 634 s

Time = 92s

smoothSolver:  Solving for Ux, Initial residual = 0.0101868, Final residual = 0.00092131, No Iterations 2
smoothSolver:  Solving for Uy, Initial residual = 0.0584435, Final residual = 0.00572408, No Iterations 2
smoothSolver:  Solving for Uz, Initial residual = 0.0453054, Final residual = 0.00440712, No Iterations 2
GAMG:  Solving for p, Initial residual = 9.84329e-05, Final residual = 6.80045e-07, No Iterations 3
time step continuity errors : sum local = 0.00629863, global = 0.000936061, cumulative = 0.0551298
smoothSolver:  Solving for nuTilda, Initial residual = 0.00551196, Final residual = 0.000109509, No Iterations 4
bounding nuTilda, min: -0.000215324 max: 0.0374776 average: 0.00360573
ExecutionTime = 639.61 s  ClockTime = 640 s

Time = 93s

smoothSolver:  Solving for Ux, Initial residual = 0.00997372, Final residual = 0.000895287, No Iterations 2
smoothSolver:  Solving for Uy, Initial residual = 0.0577787, Final residual = 0.00566249, No Iterations 2
smoothSolver:  Solving for Uz, Initial residual = 0.0448558, Final residual = 0.00437069, No Iterations 2
GAMG:  Solving for p, Initial residual = 9.34104e-05, Final residual = 6.53457e-07, No Iterations 3
time step continuity errors : sum local = 0.00613856, global = 0.000752182, cumulative = 0.055882
smoothSolver:  Solving for nuTilda, Initial residual = 0.00551982, Final residual = 0.000108823, No Iterations 4
bounding nuTilda, min: -0.000459351 max: 0.0374793 average: 0.00364297
ExecutionTime = 645.34 s  ClockTime = 646 s

Time = 94s

smoothSolver:  Solving for Ux, Initial residual = 0.00975574, Final residual = 0.00087215, No Iterations 2
smoothSolver:  Solving for Uy, Initial residual = 0.0569214, Final residual = 0.00558989, No Iterations 2
smoothSolver:  Solving for Uz, Initial residual = 0.0440934, Final residual = 0.00429108, No Iterations 2
GAMG:  Solving for p, Initial residual = 8.87584e-05, Final residual = 6.47339e-07, No Iterations 3
time step continuity errors : sum local = 0.00616999, global = 0.000719765, cumulative = 0.0566017
smoothSolver:  Solving for nuTilda, Initial residual = 0.00552435, Final residual = 0.000108101, No Iterations 4
bounding nuTilda, min: -0.000202617 max: 0.0374809 average: 0.00368035
ExecutionTime = 651.445 s  ClockTime = 652 s

Time = 95s

smoothSolver:  Solving for Ux, Initial residual = 0.00953167, Final residual = 0.000854648, No Iterations 2
smoothSolver:  Solving for Uy, Initial residual = 0.0561702, Final residual = 0.00554109, No Iterations 2
smoothSolver:  Solving for Uz, Initial residual = 0.0433258, Final residual = 0.00421701, No Iterations 2
GAMG:  Solving for p, Initial residual = 8.48751e-05, Final residual = 6.34876e-07, No Iterations 3
time step continuity errors : sum local = 0.00613173, global = 0.000779074, cumulative = 0.0573808
smoothSolver:  Solving for nuTilda, Initial residual = 0.00552756, Final residual = 0.000107328, No Iterations 4
bounding nuTilda, min: -0.000458593 max: 0.0374824 average: 0.00371785
ExecutionTime = 657.666 s  ClockTime = 658 s

Time = 96s

smoothSolver:  Solving for Ux, Initial residual = 0.00930363, Final residual = 0.000844693, No Iterations 2
smoothSolver:  Solving for Uy, Initial residual = 0.055572, Final residual = 0.00551993, No Iterations 2
smoothSolver:  Solving for Uz, Initial residual = 0.0426377, Final residual = 0.0041691, No Iterations 2
GAMG:  Solving for p, Initial residual = 8.11355e-05, Final residual = 5.9763e-07, No Iterations 3
time step continuity errors : sum local = 0.00583861, global = 0.000800025, cumulative = 0.0581808
smoothSolver:  Solving for nuTilda, Initial residual = 0.0055297, Final residual = 0.000106554, No Iterations 4
bounding nuTilda, min: -0.000159284 max: 0.0374836 average: 0.00375544
ExecutionTime = 663.486 s  ClockTime = 664 s

Time = 97s

smoothSolver:  Solving for Ux, Initial residual = 0.00907997, Final residual = 0.000839291, No Iterations 2
smoothSolver:  Solving for Uy, Initial residual = 0.0548901, Final residual = 0.00127766, No Iterations 4
smoothSolver:  Solving for Uz, Initial residual = 0.0419716, Final residual = 0.00416275, No Iterations 2
GAMG:  Solving for p, Initial residual = 7.77744e-05, Final residual = 5.53778e-07, No Iterations 3
time step continuity errors : sum local = 0.00546565, global = 0.000789261, cumulative = 0.0589701
smoothSolver:  Solving for nuTilda, Initial residual = 0.005531, Final residual = 0.000105804, No Iterations 4
bounding nuTilda, min: -0.000458614 max: 0.0374847 average: 0.00379312
ExecutionTime = 669.442 s  ClockTime = 670 s

Time = 98s

smoothSolver:  Solving for Ux, Initial residual = 0.00889889, Final residual = 0.000847148, No Iterations 2
smoothSolver:  Solving for Uy, Initial residual = 0.0530049, Final residual = 0.0052807, No Iterations 2
smoothSolver:  Solving for Uz, Initial residual = 0.0413809, Final residual = 0.000994002, No Iterations 4
GAMG:  Solving for p, Initial residual = 7.40251e-05, Final residual = 5.24347e-07, No Iterations 3
time step continuity errors : sum local = 0.00521932, global = 0.000672953, cumulative = 0.059643
smoothSolver:  Solving for nuTilda, Initial residual = 0.00553254, Final residual = 0.000105074, No Iterations 4
bounding nuTilda, min: -0.000196923 max: 0.0374859 average: 0.00383088
ExecutionTime = 675.273 s  ClockTime = 676 s

Time = 99s

smoothSolver:  Solving for Ux, Initial residual = 0.00872565, Final residual = 0.000857135, No Iterations 2
smoothSolver:  Solving for Uy, Initial residual = 0.0523993, Final residual = 0.00131807, No Iterations 4
smoothSolver:  Solving for Uz, Initial residual = 0.0396605, Final residual = 0.00396583, No Iterations 2
GAMG:  Solving for p, Initial residual = 7.12611e-05, Final residual = 5.01584e-07, No Iterations 3
time step continuity errors : sum local = 0.00502666, global = 0.000638962, cumulative = 0.060282
smoothSolver:  Solving for nuTilda, Initial residual = 0.00553407, Final residual = 0.000104383, No Iterations 4
bounding nuTilda, min: -0.000458555 max: 0.0374876 average: 0.00386871
ExecutionTime = 681.226 s  ClockTime = 682 s

Time = 100s

smoothSolver:  Solving for Ux, Initial residual = 0.00853239, Final residual = 0.00020769, No Iterations 4
smoothSolver:  Solving for Uy, Initial residual = 0.0509678, Final residual = 0.00131243, No Iterations 4
smoothSolver:  Solving for Uz, Initial residual = 0.0390346, Final residual = 0.000948433, No Iterations 4
GAMG:  Solving for p, Initial residual = 6.93706e-05, Final residual = 5.30506e-07, No Iterations 3
time step continuity errors : sum local = 0.0053452, global = 0.000813298, cumulative = 0.0610953
smoothSolver:  Solving for nuTilda, Initial residual = 0.0055334, Final residual = 0.000103659, No Iterations 4
bounding nuTilda, min: -0.000169225 max: 0.0374891 average: 0.00390653
ExecutionTime = 687.268 s  ClockTime = 688 s

Time = 101s

smoothSolver:  Solving for Ux, Initial residual = 0.00820572, Final residual = 0.000196677, No Iterations 4
smoothSolver:  Solving for Uy, Initial residual = 0.0502471, Final residual = 0.00130592, No Iterations 4
smoothSolver:  Solving for Uz, Initial residual = 0.0381821, Final residual = 0.00092971, No Iterations 4
GAMG:  Solving for p, Initial residual = 6.71327e-05, Final residual = 5.16304e-07, No Iterations 3
time step continuity errors : sum local = 0.00522431, global = 0.000730507, cumulative = 0.0618258
smoothSolver:  Solving for nuTilda, Initial residual = 0.00553072, Final residual = 0.000102924, No Iterations 4
bounding nuTilda, min: -0.000458932 max: 0.0374905 average: 0.00394435
ExecutionTime = 693.176 s  ClockTime = 693 s

Time = 102s

smoothSolver:  Solving for Ux, Initial residual = 0.00790725, Final residual = 0.00078991, No Iterations 2
smoothSolver:  Solving for Uy, Initial residual = 0.0496776, Final residual = 0.00128487, No Iterations 4
smoothSolver:  Solving for Uz, Initial residual = 0.037348, Final residual = 0.000906343, No Iterations 4
GAMG:  Solving for p, Initial residual = 6.35217e-05, Final residual = 4.65697e-07, No Iterations 3
time step continuity errors : sum local = 0.00472081, global = 0.000369026, cumulative = 0.0621948
smoothSolver:  Solving for nuTilda, Initial residual = 0.00552686, Final residual = 0.00010228, No Iterations 4
bounding nuTilda, min: -0.000183392 max: 0.0374916 average: 0.00398223
ExecutionTime = 699.031 s  ClockTime = 699 s

Time = 103s

smoothSolver:  Solving for Ux, Initial residual = 0.00777236, Final residual = 0.000189258, No Iterations 4
smoothSolver:  Solving for Uy, Initial residual = 0.0483104, Final residual = 0.00121963, No Iterations 4
smoothSolver:  Solving for Uz, Initial residual = 0.0359115, Final residual = 0.000851585, No Iterations 4
GAMG:  Solving for p, Initial residual = 6.10948e-05, Final residual = 4.45229e-07, No Iterations 3
time step continuity errors : sum local = 0.00452144, global = 1.87369e-05, cumulative = 0.0622136
smoothSolver:  Solving for nuTilda, Initial residual = 0.00552509, Final residual = 0.000101671, No Iterations 4
bounding nuTilda, min: -0.000457932 max: 0.0374927 average: 0.00402011
ExecutionTime = 704.937 s  ClockTime = 705 s

Time = 104s

smoothSolver:  Solving for Ux, Initial residual = 0.00752621, Final residual = 0.00018063, No Iterations 4
[...]
smoothSolver:  Solving for Uy, Initial residual = 1.78929e-05, Final residual = 1.20607e-06, No Iterations 4
smoothSolver:  Solving for Uz, Initial residual = 1.55815e-05, Final residual = 9.5297e-07, No Iterations 4
GAMG:  Solving for p, Initial residual = 1.36551e-06, Final residual = 4.43715e-08, No Iterations 2
time step continuity errors : sum local = 4.38437e-05, global = 2.52574e-05, cumulative = 0.00893879
smoothSolver:  Solving for nuTilda, Initial residual = 0.000107952, Final residual = 1.07738e-05, No Iterations 2
bounding nuTilda, min: -0.000453885 max: 0.127527 average: 0.0138842
ExecutionTime = 5616.75 s  ClockTime = 5618 s

Time = 976s

smoothSolver:  Solving for Ux, Initial residual = 5.64554e-06, Final residual = 3.08573e-07, No Iterations 4
smoothSolver:  Solving for Uy, Initial residual = 1.75427e-05, Final residual = 1.18722e-06, No Iterations 4
smoothSolver:  Solving for Uz, Initial residual = 1.50825e-05, Final residual = 9.26243e-07, No Iterations 4
GAMG:  Solving for p, Initial residual = 1.32515e-06, Final residual = 7.5656e-08, No Iterations 1
time step continuity errors : sum local = 7.46022e-05, global = -2.22354e-05, cumulative = 0.00891656
smoothSolver:  Solving for nuTilda, Initial residual = 0.000107925, Final residual = 1.07709e-05, No Iterations 2
bounding nuTilda, min: -5.67296e-05 max: 0.127563 average: 0.0138855
ExecutionTime = 5621.66 s  ClockTime = 5622 s

Time = 977s

smoothSolver:  Solving for Ux, Initial residual = 5.62722e-06, Final residual = 3.03387e-07, No Iterations 4
smoothSolver:  Solving for Uy, Initial residual = 1.73874e-05, Final residual = 1.17092e-06, No Iterations 4
smoothSolver:  Solving for Uz, Initial residual = 1.48732e-05, Final residual = 9.14888e-07, No Iterations 4
GAMG:  Solving for p, Initial residual = 1.36805e-06, Final residual = 9.50892e-08, No Iterations 1
time step continuity errors : sum local = 9.35339e-05, global = -4.53484e-05, cumulative = 0.00887121
smoothSolver:  Solving for nuTilda, Initial residual = 0.000107905, Final residual = 1.0769e-05, No Iterations 2
bounding nuTilda, min: -0.000457867 max: 0.127599 average: 0.0138868
ExecutionTime = 5627 s  ClockTime = 5628 s

Time = 978s

smoothSolver:  Solving for Ux, Initial residual = 5.57143e-06, Final residual = 2.91782e-07, No Iterations 4
smoothSolver:  Solving for Uy, Initial residual = 1.67558e-05, Final residual = 1.08955e-06, No Iterations 4
smoothSolver:  Solving for Uz, Initial residual = 1.44852e-05, Final residual = 8.82852e-07, No Iterations 4
GAMG:  Solving for p, Initial residual = 1.41046e-06, Final residual = 6.928e-08, No Iterations 3
time step continuity errors : sum local = 6.79837e-05, global = -4.77411e-05, cumulative = 0.00882347
smoothSolver:  Solving for nuTilda, Initial residual = 0.000107892, Final residual = 1.07675e-05, No Iterations 2
bounding nuTilda, min: -7.91515e-05 max: 0.127636 average: 0.0138881
ExecutionTime = 5632.51 s  ClockTime = 5633 s

Time = 979s

smoothSolver:  Solving for Ux, Initial residual = 5.43552e-06, Final residual = 2.86131e-07, No Iterations 4
smoothSolver:  Solving for Uy, Initial residual = 1.73747e-05, Final residual = 1.02277e-06, No Iterations 4
smoothSolver:  Solving for Uz, Initial residual = 1.59083e-05, Final residual = 1.01485e-06, No Iterations 4
GAMG:  Solving for p, Initial residual = 1.40567e-06, Final residual = 9.62662e-08, No Iterations 1
time step continuity errors : sum local = 9.4265e-05, global = -5.91545e-05, cumulative = 0.00876431
smoothSolver:  Solving for nuTilda, Initial residual = 0.000107874, Final residual = 1.07656e-05, No Iterations 2
bounding nuTilda, min: -0.000465733 max: 0.127672 average: 0.0138895
ExecutionTime = 5637.65 s  ClockTime = 5638 s

Time = 980s

smoothSolver:  Solving for Ux, Initial residual = 5.43409e-06, Final residual = 2.8456e-07, No Iterations 4
smoothSolver:  Solving for Uy, Initial residual = 1.73519e-05, Final residual = 1.00964e-06, No Iterations 4
smoothSolver:  Solving for Uz, Initial residual = 1.5926e-05, Final residual = 1.00997e-06, No Iterations 4
GAMG:  Solving for p, Initial residual = 1.42057e-06, Final residual = 4.4711e-08, No Iterations 2
time step continuity errors : sum local = 4.36812e-05, global = 1.10633e-05, cumulative = 0.00877538
smoothSolver:  Solving for nuTilda, Initial residual = 0.000107853, Final residual = 1.07633e-05, No Iterations 2
bounding nuTilda, min: -3.77126e-05 max: 0.127708 average: 0.0138908
ExecutionTime = 5642.8 s  ClockTime = 5644 s

Time = 981s

smoothSolver:  Solving for Ux, Initial residual = 5.44327e-06, Final residual = 2.83959e-07, No Iterations 4
smoothSolver:  Solving for Uy, Initial residual = 1.85336e-05, Final residual = 1.20055e-06, No Iterations 4
smoothSolver:  Solving for Uz, Initial residual = 1.5819e-05, Final residual = 9.89171e-07, No Iterations 4
GAMG:  Solving for p, Initial residual = 1.36052e-06, Final residual = 9.05272e-08, No Iterations 1
time step continuity errors : sum local = 8.82642e-05, global = -4.62764e-05, cumulative = 0.0087291
smoothSolver:  Solving for nuTilda, Initial residual = 0.000107833, Final residual = 1.07611e-05, No Iterations 2
bounding nuTilda, min: -0.000465531 max: 0.127744 average: 0.0138921
ExecutionTime = 5647.79 s  ClockTime = 5649 s

Time = 982s

smoothSolver:  Solving for Ux, Initial residual = 5.43273e-06, Final residual = 2.79587e-07, No Iterations 4
smoothSolver:  Solving for Uy, Initial residual = 1.81239e-05, Final residual = 1.15841e-06, No Iterations 4
smoothSolver:  Solving for Uz, Initial residual = 1.56011e-05, Final residual = 9.62986e-07, No Iterations 4
GAMG:  Solving for p, Initial residual = 1.40167e-06, Final residual = 7.05948e-08, No Iterations 2
time step continuity errors : sum local = 6.86561e-05, global = 4.37596e-05, cumulative = 0.00877286
smoothSolver:  Solving for nuTilda, Initial residual = 0.000107806, Final residual = 1.07584e-05, No Iterations 2
bounding nuTilda, min: -2.96449e-05 max: 0.12778 average: 0.0138935
ExecutionTime = 5653.15 s  ClockTime = 5654 s

Time = 983s

smoothSolver:  Solving for Ux, Initial residual = 5.5688e-06, Final residual = 2.90448e-07, No Iterations 4
smoothSolver:  Solving for Uy, Initial residual = 1.70923e-05, Final residual = 1.06943e-06, No Iterations 4
smoothSolver:  Solving for Uz, Initial residual = 1.64636e-05, Final residual = 9.89805e-07, No Iterations 4
GAMG:  Solving for p, Initial residual = 1.34815e-06, Final residual = 9.56695e-08, No Iterations 1
time step continuity errors : sum local = 9.28685e-05, global = -2.22473e-05, cumulative = 0.00875061
smoothSolver:  Solving for nuTilda, Initial residual = 0.000107778, Final residual = 1.07555e-05, No Iterations 2
bounding nuTilda, min: -0.000462226 max: 0.127816 average: 0.0138948
ExecutionTime = 5658.11 s  ClockTime = 5659 s

Time = 984s

smoothSolver:  Solving for Ux, Initial residual = 5.58516e-06, Final residual = 2.91018e-07, No Iterations 4
smoothSolver:  Solving for Uy, Initial residual = 1.69235e-05, Final residual = 1.05379e-06, No Iterations 4
smoothSolver:  Solving for Uz, Initial residual = 1.64576e-05, Final residual = 9.83497e-07, No Iterations 4
GAMG:  Solving for p, Initial residual = 1.37307e-06, Final residual = 5.85651e-08, No Iterations 2
time step continuity errors : sum local = 5.6705e-05, global = 3.18091e-05, cumulative = 0.00878242
smoothSolver:  Solving for nuTilda, Initial residual = 0.000107762, Final residual = 1.07536e-05, No Iterations 2
bounding nuTilda, min: -7.87527e-05 max: 0.127852 average: 0.0138961
ExecutionTime = 5663.27 s  ClockTime = 5664 s

Time = 985s

smoothSolver:  Solving for Ux, Initial residual = 5.60745e-06, Final residual = 2.85799e-07, No Iterations 4
smoothSolver:  Solving for Uy, Initial residual = 1.91066e-05, Final residual = 1.10503e-06, No Iterations 4
smoothSolver:  Solving for Uz, Initial residual = 1.82373e-05, Final residual = 1.12244e-06, No Iterations 4
GAMG:  Solving for p, Initial residual = 1.34683e-06, Final residual = 8.62371e-08, No Iterations 1
time step continuity errors : sum local = 8.33041e-05, global = -2.68407e-05, cumulative = 0.00875558
smoothSolver:  Solving for nuTilda, Initial residual = 0.000107741, Final residual = 1.07515e-05, No Iterations 2
bounding nuTilda, min: -0.000460988 max: 0.127887 average: 0.0138975
ExecutionTime = 5668.48 s  ClockTime = 5669 s

Time = 986s

smoothSolver:  Solving for Ux, Initial residual = 5.60419e-06, Final residual = 2.83559e-07, No Iterations 4
smoothSolver:  Solving for Uy, Initial residual = 1.87386e-05, Final residual = 1.06404e-06, No Iterations 4
smoothSolver:  Solving for Uz, Initial residual = 1.80468e-05, Final residual = 1.09978e-06, No Iterations 4
GAMG:  Solving for p, Initial residual = 1.39742e-06, Final residual = 4.76556e-08, No Iterations 2
time step continuity errors : sum local = 4.5922e-05, global = 2.69809e-05, cumulative = 0.00878256
smoothSolver:  Solving for nuTilda, Initial residual = 0.000107724, Final residual = 1.07498e-05, No Iterations 2
bounding nuTilda, min: -3.77601e-05 max: 0.127923 average: 0.0138988
ExecutionTime = 5673.55 s  ClockTime = 5674 s

Time = 987s

smoothSolver:  Solving for Ux, Initial residual = 5.50715e-06, Final residual = 2.72152e-07, No Iterations 4
smoothSolver:  Solving for Uy, Initial residual = 1.72947e-05, Final residual = 1.02909e-06, No Iterations 4
smoothSolver:  Solving for Uz, Initial residual = 1.71414e-05, Final residual = 9.81821e-07, No Iterations 4
GAMG:  Solving for p, Initial residual = 1.36174e-06, Final residual = 9.38085e-08, No Iterations 1
time step continuity errors : sum local = 9.02088e-05, global = -4.49923e-05, cumulative = 0.00873757
smoothSolver:  Solving for nuTilda, Initial residual = 0.000107709, Final residual = 1.07482e-05, No Iterations 2
bounding nuTilda, min: -0.000460395 max: 0.127959 average: 0.0139001
ExecutionTime = 5678.72 s  ClockTime = 5680 s

Time = 988s

smoothSolver:  Solving for Ux, Initial residual = 5.49879e-06, Final residual = 2.69951e-07, No Iterations 4
smoothSolver:  Solving for Uy, Initial residual = 1.73835e-05, Final residual = 1.02938e-06, No Iterations 4
smoothSolver:  Solving for Uz, Initial residual = 1.68381e-05, Final residual = 9.56439e-07, No Iterations 4
GAMG:  Solving for p, Initial residual = 1.41842e-06, Final residual = 7.15384e-08, No Iterations 2
time step continuity errors : sum local = 6.86185e-05, global = 4.6088e-05, cumulative = 0.00878366
smoothSolver:  Solving for nuTilda, Initial residual = 0.000107689, Final residual = 1.0746e-05, No Iterations 2
bounding nuTilda, min: -4.79073e-05 max: 0.127994 average: 0.0139015
ExecutionTime = 5683.95 s  ClockTime = 5685 s

Time = 989s

smoothSolver:  Solving for Ux, Initial residual = 5.46268e-06, Final residual = 2.7255e-07, No Iterations 4
smoothSolver:  Solving for Uy, Initial residual = 1.83359e-05, Final residual = 1.00881e-06, No Iterations 4
smoothSolver:  Solving for Uz, Initial residual = 1.69915e-05, Final residual = 9.94074e-07, No Iterations 4
GAMG:  Solving for p, Initial residual = 1.36401e-06, Final residual = 9.91154e-08, No Iterations 1
time step continuity errors : sum local = 9.48898e-05, global = -3.83008e-05, cumulative = 0.00874536
smoothSolver:  Solving for nuTilda, Initial residual = 0.000107669, Final residual = 1.07437e-05, No Iterations 2
bounding nuTilda, min: -0.000459998 max: 0.12803 average: 0.0139028
ExecutionTime = 5689.04 s  ClockTime = 5690 s

Time = 990s

smoothSolver:  Solving for Ux, Initial residual = 5.46952e-06, Final residual = 2.72443e-07, No Iterations 4
smoothSolver:  Solving for Uy, Initial residual = 1.83315e-05, Final residual = 9.94833e-07, No Iterations 4
smoothSolver:  Solving for Uz, Initial residual = 1.70058e-05, Final residual = 9.9347e-07, No Iterations 4
GAMG:  Solving for p, Initial residual = 1.41583e-06, Final residual = 6.59886e-08, No Iterations 2
time step continuity errors : sum local = 6.30108e-05, global = 4.33333e-05, cumulative = 0.00878869
smoothSolver:  Solving for nuTilda, Initial residual = 0.000107655, Final residual = 1.07417e-05, No Iterations 2
bounding nuTilda, min: -7.82032e-05 max: 0.128065 average: 0.0139042
ExecutionTime = 5694.5 s  ClockTime = 5695 s

Time = 991s

smoothSolver:  Solving for Ux, Initial residual = 5.42259e-06, Final residual = 2.61735e-07, No Iterations 4
smoothSolver:  Solving for Uy, Initial residual = 1.96609e-05, Final residual = 1.13361e-06, No Iterations 4
smoothSolver:  Solving for Uz, Initial residual = 1.86137e-05, Final residual = 1.10996e-06, No Iterations 4
GAMG:  Solving for p, Initial residual = 1.37075e-06, Final residual = 5.22707e-08, No Iterations 2
time step continuity errors : sum local = 4.9818e-05, global = 3.51946e-05, cumulative = 0.00882389
smoothSolver:  Solving for nuTilda, Initial residual = 0.000107639, Final residual = 1.07397e-05, No Iterations 2
bounding nuTilda, min: -0.00045969 max: 0.128101 average: 0.0139055
ExecutionTime = 5699.63 s  ClockTime = 5700 s

Time = 992s

smoothSolver:  Solving for Ux, Initial residual = 5.58671e-06, Final residual = 2.81564e-07, No Iterations 4
smoothSolver:  Solving for Uy, Initial residual = 1.96303e-05, Final residual = 1.09474e-06, No Iterations 4
smoothSolver:  Solving for Uz, Initial residual = 1.91039e-05, Final residual = 1.1163e-06, No Iterations 4
GAMG:  Solving for p, Initial residual = 1.37415e-06, Final residual = 9.14311e-08, No Iterations 1
time step continuity errors : sum local = 8.69479e-05, global = -2.63133e-05, cumulative = 0.00879757
smoothSolver:  Solving for nuTilda, Initial residual = 0.000107624, Final residual = 1.07375e-05, No Iterations 2
bounding nuTilda, min: -5.40227e-05 max: 0.128136 average: 0.0139069
ExecutionTime = 5704.56 s  ClockTime = 5705 s

Time = 993s

smoothSolver:  Solving for Ux, Initial residual = 5.59026e-06, Final residual = 2.79618e-07, No Iterations 4
smoothSolver:  Solving for Uy, Initial residual = 1.93393e-05, Final residual = 1.06988e-06, No Iterations 4
smoothSolver:  Solving for Uz, Initial residual = 1.87365e-05, Final residual = 1.0858e-06, No Iterations 4
GAMG:  Solving for p, Initial residual = 1.41526e-06, Final residual = 5.52766e-08, No Iterations 2
time step continuity errors : sum local = 5.24363e-05, global = 3.6761e-05, cumulative = 0.00883433
smoothSolver:  Solving for nuTilda, Initial residual = 0.000107612, Final residual = 1.07357e-05, No Iterations 2
bounding nuTilda, min: -0.000459472 max: 0.128172 average: 0.0139082
ExecutionTime = 5709.73 s  ClockTime = 5711 s

Time = 994s

smoothSolver:  Solving for Ux, Initial residual = 5.61845e-06, Final residual = 2.7251e-07, No Iterations 4
smoothSolver:  Solving for Uy, Initial residual = 1.95156e-05, Final residual = 1.05205e-06, No Iterations 4
smoothSolver:  Solving for Uz, Initial residual = 1.81947e-05, Final residual = 9.44985e-07, No Iterations 4
GAMG:  Solving for p, Initial residual = 1.38507e-06, Final residual = 5.53779e-08, No Iterations 2
time step continuity errors : sum local = 5.24249e-05, global = 3.78736e-05, cumulative = 0.00887221
smoothSolver:  Solving for nuTilda, Initial residual = 0.000107597, Final residual = 1.07333e-05, No Iterations 2
bounding nuTilda, min: -5.65367e-05 max: 0.128207 average: 0.0139096
ExecutionTime = 5714.96 s  ClockTime = 5716 s

Time = 995s

smoothSolver:  Solving for Ux, Initial residual = 5.67132e-06, Final residual = 2.70323e-07, No Iterations 4
smoothSolver:  Solving for Uy, Initial residual = 2.00652e-05, Final residual = 1.08375e-06, No Iterations 4
smoothSolver:  Solving for Uz, Initial residual = 1.95002e-05, Final residual = 1.03201e-06, No Iterations 4
GAMG:  Solving for p, Initial residual = 1.38418e-06, Final residual = 9.48752e-08, No Iterations 1
time step continuity errors : sum local = 8.961e-05, global = -3.40487e-05, cumulative = 0.00883816
smoothSolver:  Solving for nuTilda, Initial residual = 0.00010758, Final residual = 1.07309e-05, No Iterations 2
bounding nuTilda, min: -0.000459297 max: 0.128242 average: 0.0139109
ExecutionTime = 5720.03 s  ClockTime = 5721 s

Time = 996s

smoothSolver:  Solving for Ux, Initial residual = 5.67787e-06, Final residual = 2.71046e-07, No Iterations 4
smoothSolver:  Solving for Uy, Initial residual = 1.98659e-05, Final residual = 1.05842e-06, No Iterations 4
smoothSolver:  Solving for Uz, Initial residual = 1.92763e-05, Final residual = 1.02518e-06, No Iterations 4
GAMG:  Solving for p, Initial residual = 1.43958e-06, Final residual = 5.79936e-08, No Iterations 2
time step continuity errors : sum local = 5.46377e-05, global = 3.73906e-05, cumulative = 0.00887555
smoothSolver:  Solving for nuTilda, Initial residual = 0.000107566, Final residual = 1.07287e-05, No Iterations 2
bounding nuTilda, min: -7.78698e-05 max: 0.128277 average: 0.0139123
ExecutionTime = 5725.19 s  ClockTime = 5726 s

Time = 997s

smoothSolver:  Solving for Ux, Initial residual = 5.59997e-06, Final residual = 2.57055e-07, No Iterations 4
smoothSolver:  Solving for Uy, Initial residual = 2.05359e-05, Final residual = 1.09257e-06, No Iterations 4
smoothSolver:  Solving for Uz, Initial residual = 1.97481e-05, Final residual = 1.06713e-06, No Iterations 4
GAMG:  Solving for p, Initial residual = 1.39913e-06, Final residual = 5.30149e-08, No Iterations 2
time step continuity errors : sum local = 4.98446e-05, global = 3.55632e-05, cumulative = 0.00891111
smoothSolver:  Solving for nuTilda, Initial residual = 0.000107551, Final residual = 1.07266e-05, No Iterations 2
bounding nuTilda, min: -0.000458692 max: 0.128312 average: 0.0139136
ExecutionTime = 5730.41 s  ClockTime = 5731 s

Time = 998s

smoothSolver:  Solving for Ux, Initial residual = 5.60371e-06, Final residual = 2.63155e-07, No Iterations 4
smoothSolver:  Solving for Uy, Initial residual = 2.09296e-05, Final residual = 1.08619e-06, No Iterations 4
smoothSolver:  Solving for Uz, Initial residual = 1.99266e-05, Final residual = 1.066e-06, No Iterations 4
GAMG:  Solving for p, Initial residual = 1.40023e-06, Final residual = 3.649e-08, No Iterations 2
time step continuity errors : sum local = 3.42283e-05, global = 2.20993e-05, cumulative = 0.00893321
smoothSolver:  Solving for nuTilda, Initial residual = 0.000107536, Final residual = 1.07248e-05, No Iterations 2
bounding nuTilda, min: -6.4429e-05 max: 0.128347 average: 0.013915
ExecutionTime = 5735.6 s  ClockTime = 5736 s

Time = 999s

smoothSolver:  Solving for Ux, Initial residual = 5.60906e-06, Final residual = 2.67458e-07, No Iterations 4
smoothSolver:  Solving for Uy, Initial residual = 2.10398e-05, Final residual = 1.08553e-06, No Iterations 4
smoothSolver:  Solving for Uz, Initial residual = 1.97166e-05, Final residual = 1.01929e-06, No Iterations 4
GAMG:  Solving for p, Initial residual = 1.40295e-06, Final residual = 2.91753e-08, No Iterations 2
time step continuity errors : sum local = 2.73032e-05, global = 1.1546e-05, cumulative = 0.00894476
smoothSolver:  Solving for nuTilda, Initial residual = 0.000107524, Final residual = 1.07232e-05, No Iterations 2
bounding nuTilda, min: -0.000458423 max: 0.128382 average: 0.0139163
ExecutionTime = 5740.95 s  ClockTime = 5742 s

Time = 1000s

smoothSolver:  Solving for Ux, Initial residual = 5.62338e-06, Final residual = 2.68968e-07, No Iterations 4
smoothSolver:  Solving for Uy, Initial residual = 2.11953e-05, Final residual = 1.10009e-06, No Iterations 4
smoothSolver:  Solving for Uz, Initial residual = 1.95286e-05, Final residual = 9.7836e-07, No Iterations 4
GAMG:  Solving for p, Initial residual = 1.4097e-06, Final residual = 3.04773e-08, No Iterations 2
time step continuity errors : sum local = 2.84564e-05, global = 8.87434e-06, cumulative = 0.00895363
smoothSolver:  Solving for nuTilda, Initial residual = 0.000107514, Final residual = 1.07217e-05, No Iterations 2
bounding nuTilda, min: -6.66438e-05 max: 0.128417 average: 0.0139177
ExecutionTime = 5746.13 s  ClockTime = 5747 s

End

Finalising parallel run
